-40.05010977
 OpenBabel07082014033D

 24 24  0  0  0  0  0  0  0  0999 V2000
   -0.1823   -0.9558   -0.0105 C   0  0  0  0  0  0  0  0  0  0  0  0
    0.7730    0.0767   -0.0243 C   0  0  0  0  0  0  0  0  0  0  0  0
    0.3188    1.4030   -0.0548 C   0  0  0  0  0  0  0  0  0  0  0  0
   -1.0466    1.6254   -0.0400 C   0  0  0  0  0  3  0  0  0  0  0  0
   -1.9435    0.6320    0.0064 N   0  0  0  0  0  0  0  0  0  0  0  0
   -1.5605   -0.6504    0.0171 C   0  0  0  0  0  0  0  0  0  0  0  0
   -2.5739   -1.7369    0.0546 C   0  0  0  0  0  0  0  0  0  0  0  0
   -3.2282   -1.6901   -0.8144 H   0  0  0  0  0  0  0  0  0  0  0  0
   -2.0610   -2.6943    0.0558 H   0  0  0  0  0  0  0  0  0  0  0  0
   -3.1887   -1.6662    0.9504 H   0  0  0  0  0  0  0  0  0  0  0  0
   -3.3539    0.9531    0.0410 C   0  0  0  0  0  0  0  0  0  0  0  0
   -3.8587    0.5191   -0.8222 H   0  0  0  0  0  0  0  0  0  0  0  0
   -3.8067    0.5494    0.9467 H   0  0  0  0  0  0  0  0  0  0  0  0
   -3.4872    2.0315    0.0268 H   0  0  0  0  0  0  0  0  0  0  0  0
   -1.4315    2.6326   -0.0595 H   0  0  0  0  0  0  0  0  0  0  0  0
    1.2268    2.5838   -0.1049 C   0  0  0  0  0  0  0  0  0  0  0  0
    1.9498    2.4702   -0.9094 H   0  0  0  0  0  0  0  0  0  0  0  0
    0.6636    3.5022   -0.2405 H   0  0  0  0  0  0  0  0  0  0  0  0
    1.8088    2.6415    0.8129 H   0  0  0  0  0  0  0  0  0  0  0  0
    2.2617   -0.3021    0.0250 C   0  0  0  0  0  0  0  0  0  0  0  0
    3.0943    0.5820    0.2501 O   0  0  0  0  0  1  0  0  0  0  0  0
    2.5269   -1.5268   -0.1530 O   0  0  0  0  0  0  0  0  0  0  0  0
    0.1595   -2.2397   -0.0211 O   0  0  0  0  0  0  0  0  0  0  0  0
    1.1806   -2.2389   -0.0857 H   0  0  0  0  0  0  0  0  0  0  0  0
  1  6  2  0  0  0  0
  2  1  1  0  0  0  0
  2 20  1  0  0  0  0
  3  4  1  0  0  0  0
  3  2  2  0  0  0  0
  4  5  1  0  0  0  0
  5  6  1  0  0  0  0
  5 11  1  0  0  0  0
  6  7  1  0  0  0  0
  7  9  1  0  0  0  0
  7 10  1  0  0  0  0
  8  7  1  0  0  0  0
 11 13  1  0  0  0  0
 12 11  1  0  0  0  0
 14 11  1  0  0  0  0
 15  4  1  0  0  0  0
 16  3  1  0  0  0  0
 16 19  1  0  0  0  0
 17 16  1  0  0  0  0
 18 16  1  0  0  0  0
 20 21  1  0  0  0  0
 22 20  2  0  0  0  0
 23  1  1  0  0  0  0
 24 23  1  0  0  0  0
M  END
>  <target>  (1)
-1.29

$$$$
-43.21451648
 OpenBabel07082014033D

 27 27  0  0  0  0  0  0  0  0999 V2000
   -0.5089   -1.0711    0.0719 C   0  0  0  0  0  0  0  0  0  0  0  0
    0.6216   -0.2530   -0.1001 C   0  0  0  0  0  0  0  0  0  0  0  0
    0.4300    1.1276   -0.2249 C   0  0  0  0  0  0  0  0  0  0  0  0
   -0.8662    1.6094   -0.2336 C   0  0  0  0  0  3  0  0  0  0  0  0
   -1.9359    0.8101   -0.1352 N   0  0  0  0  0  0  0  0  0  0  0  0
   -1.8027   -0.5134    0.0273 C   0  0  0  0  0  0  0  0  0  0  0  0
   -3.0045   -1.3773    0.1629 C   0  0  0  0  0  0  0  0  0  0  0  0
   -3.6301   -1.3162   -0.7262 H   0  0  0  0  0  0  0  0  0  0  0  0
   -2.6837   -2.4063    0.2954 H   0  0  0  0  0  0  0  0  0  0  0  0
   -3.6028   -1.0818    1.0232 H   0  0  0  0  0  0  0  0  0  0  0  0
   -3.2608    1.3896   -0.1902 C   0  0  0  0  0  0  0  0  0  0  0  0
   -3.7970    1.1888    0.7375 H   0  0  0  0  0  0  0  0  0  0  0  0
   -3.1873    2.4643   -0.3335 H   0  0  0  0  0  0  0  0  0  0  0  0
   -3.8247    0.9571   -1.0167 H   0  0  0  0  0  0  0  0  0  0  0  0
   -1.0493    2.6677   -0.3333 H   0  0  0  0  0  0  0  0  0  0  0  0
    1.5574    2.1136   -0.2673 C   0  0  0  0  0  0  0  0  0  0  0  0
    1.2349    3.0230   -0.7741 H   0  0  0  0  0  0  0  0  0  0  0  0
    2.3948    1.6796   -0.8110 H   0  0  0  0  0  0  0  0  0  0  0  0
    2.0040    2.4516    1.1581 C   0  0  0  0  0  0  0  0  0  0  0  0
    2.8148    3.1736    1.1298 H   0  0  0  0  0  0  0  0  0  0  0  0
    2.3633    1.5541    1.6584 H   0  0  0  0  0  0  0  0  0  0  0  0
    1.1805    2.8671    1.7339 H   0  0  0  0  0  0  0  0  0  0  0  0
    1.9884   -0.9536   -0.2042 C   0  0  0  0  0  0  0  0  0  0  0  0
    2.0764   -2.0580    0.3994 O   0  0  0  0  0  1  0  0  0  0  0  0
    2.8664   -0.4331   -0.9014 O   0  0  0  0  0  0  0  0  0  0  0  0
   -0.4086   -2.3830    0.2826 O   0  0  0  0  0  0  0  0  0  0  0  0
    0.5788   -2.5650    0.3949 H   0  0  0  0  0  0  0  0  0  0  0  0
  1 26  1  0  0  0  0
  2  1  1  0  0  0  0
  3  2  2  0  0  0  0
  4  3  1  0  0  0  0
  4  5  1  0  0  0  0
  5  6  1  0  0  0  0
  6  1  2  0  0  0  0
  6  7  1  0  0  0  0
  7  9  1  0  0  0  0
  7 10  1  0  0  0  0
  8  7  1  0  0  0  0
 11  5  1  0  0  0  0
 11 12  1  0  0  0  0
 13 11  1  0  0  0  0
 14 11  1  0  0  0  0
 15  4  1  0  0  0  0
 16  3  1  0  0  0  0
 16 19  1  0  0  0  0
 17 16  1  0  0  0  0
 18 16  1  0  0  0  0
 19 21  1  0  0  0  0
 19 22  1  0  0  0  0
 20 19  1  0  0  0  0
 23  2  1  0  0  0  0
 23 24  1  0  0  0  0
 25 23  2  0  0  0  0
 26 27  1  0  0  0  0
M  END
>  <target>  (2)
-1.26

$$$$
-46.38017234
 OpenBabel07082014033D

 30 30  0  0  0  0  0  0  0  0999 V2000
   -0.9630   -1.0556    0.0291 C   0  0  0  0  0  0  0  0  0  0  0  0
    0.3631   -0.6026   -0.0698 C   0  0  0  0  0  0  0  0  0  0  0  0
    0.6020    0.7784   -0.0841 C   0  0  0  0  0  0  0  0  0  0  0  0
   -0.4924    1.6227   -0.0734 C   0  0  0  0  0  3  0  0  0  0  0  0
   -1.7545    1.1732   -0.0578 N   0  0  0  0  0  0  0  0  0  0  0  0
   -2.0299   -0.1360    0.0083 C   0  0  0  0  0  0  0  0  0  0  0  0
   -3.4386   -0.6063    0.0655 C   0  0  0  0  0  0  0  0  0  0  0  0
   -3.9503   -0.1990    0.9359 H   0  0  0  0  0  0  0  0  0  0  0  0
   -3.9865   -0.3052   -0.8260 H   0  0  0  0  0  0  0  0  0  0  0  0
   -3.4439   -1.6904    0.1303 H   0  0  0  0  0  0  0  0  0  0  0  0
   -2.8435    2.1259   -0.0938 C   0  0  0  0  0  0  0  0  0  0  0  0
   -3.4800    1.9330   -0.9574 H   0  0  0  0  0  0  0  0  0  0  0  0
   -3.4483    2.0390    0.8090 H   0  0  0  0  0  0  0  0  0  0  0  0
   -2.4484    3.1360   -0.1622 H   0  0  0  0  0  0  0  0  0  0  0  0
   -0.3614    2.6912   -0.0904 H   0  0  0  0  0  0  0  0  0  0  0  0
    2.0000    1.3381   -0.0281 C   0  0  0  0  0  0  0  0  0  0  0  0
    2.6336    0.6846   -0.6328 H   0  0  0  0  0  0  0  0  0  0  0  0
    2.4835    1.2561    1.4261 C   0  0  0  0  0  0  0  0  0  0  0  0
    1.8436    1.8477    2.0773 H   0  0  0  0  0  0  0  0  0  0  0  0
    3.5011    1.6297    1.4981 H   0  0  0  0  0  0  0  0  0  0  0  0
    2.4754    0.2230    1.7694 H   0  0  0  0  0  0  0  0  0  0  0  0
    2.1236    2.7682   -0.5498 C   0  0  0  0  0  0  0  0  0  0  0  0
    1.6766    3.4813    0.1379 H   0  0  0  0  0  0  0  0  0  0  0  0
    1.6659    2.8636   -1.5307 H   0  0  0  0  0  0  0  0  0  0  0  0
    3.1774    3.0163   -0.6445 H   0  0  0  0  0  0  0  0  0  0  0  0
    1.4525   -1.6799   -0.2213 C   0  0  0  0  0  0  0  0  0  0  0  0
    1.2073   -2.7782    0.3477 O   0  0  0  0  0  1  0  0  0  0  0  0
    2.4362   -1.4270   -0.9266 O   0  0  0  0  0  0  0  0  0  0  0  0
   -1.2644   -2.3498    0.1473 O   0  0  0  0  0  0  0  0  0  0  0  0
   -0.3848   -2.8244    0.2721 H   0  0  0  0  0  0  0  0  0  0  0  0
  1 29  1  0  0  0  0
  2  1  1  0  0  0  0
  3  4  1  0  0  0  0
  3  2  2  0  0  0  0
  3 16  1  0  0  0  0
  4  5  1  0  0  0  0
  5  6  1  0  0  0  0
  6  1  2  0  0  0  0
  6  7  1  0  0  0  0
  7 10  1  0  0  0  0
  7  8  1  0  0  0  0
  9  7  1  0  0  0  0
 11  5  1  0  0  0  0
 11 13  1  0  0  0  0
 12 11  1  0  0  0  0
 14 11  1  0  0  0  0
 15  4  1  0  0  0  0
 16 18  1  0  0  0  0
 17 16  1  0  0  0  0
 18 20  1  0  0  0  0
 18 21  1  0  0  0  0
 18 19  1  0  0  0  0
 22 16  1  0  0  0  0
 22 23  1  0  0  0  0
 24 22  1  0  0  0  0
 25 22  1  0  0  0  0
 26  2  1  0  0  0  0
 26 27  1  0  0  0  0
 28 26  2  0  0  0  0
 29 30  1  0  0  0  0
M  END
>  <target>  (3)
-1.34

$$$$
-49.54150057
 OpenBabel07082014033D

 33 33  0  0  1  0  0  0  0  0999 V2000
   -1.2255   -0.9689   -0.0927 C   0  0  0  0  0  0  0  0  0  0  0  0
   -2.2006    0.0371    0.0034 C   0  0  2  0  0  3  0  0  0  0  0  0
   -1.7945    1.3103    0.1064 N   0  0  0  0  0  0  0  0  0  0  0  0
   -0.4971    1.6353    0.0471 C   0  0  0  0  0  0  0  0  0  0  0  0
    0.5215    0.7001   -0.0313 C   0  0  0  0  0  0  0  0  0  0  0  0
    0.1424   -0.6503   -0.0190 C   0  0  0  0  0  0  0  0  0  0  0  0
    1.0443   -1.8877    0.1756 C   0  0  0  0  0  0  0  0  0  0  0  0
    1.8091   -1.8863    1.1479 O   0  0  0  0  0  1  0  0  0  0  0  0
    0.8152   -2.8449   -0.6063 O   0  0  0  0  0  0  0  0  0  0  0  0
    1.9616    1.1789   -0.1479 C   0  0  0  0  0  0  0  0  0  0  0  0
    2.6241    1.0986    1.2340 C   0  0  0  0  0  0  0  0  0  0  0  0
    2.0940    1.7231    1.9491 H   0  0  0  0  0  0  0  0  0  0  0  0
    3.6551    1.4358    1.1690 H   0  0  0  0  0  0  0  0  0  0  0  0
    2.6175    0.0741    1.5957 H   0  0  0  0  0  0  0  0  0  0  0  0
    2.0468    2.6291   -0.6468 C   0  0  0  0  0  0  0  0  0  0  0  0
    1.7228    3.3351    0.1123 H   0  0  0  0  0  0  0  0  0  0  0  0
    3.0852    2.8551   -0.8746 H   0  0  0  0  0  0  0  0  0  0  0  0
    1.4664    2.7659   -1.5555 H   0  0  0  0  0  0  0  0  0  0  0  0
    2.7181    0.3029   -1.1542 C   0  0  0  0  0  0  0  0  0  0  0  0
    3.7428    0.6519   -1.2531 H   0  0  0  0  0  0  0  0  0  0  0  0
    2.7539   -0.7347   -0.8355 H   0  0  0  0  0  0  0  0  0  0  0  0
    2.2402    0.3427   -2.1313 H   0  0  0  0  0  0  0  0  0  0  0  0
   -0.2749    2.6876    0.0835 H   0  0  0  0  0  0  0  0  0  0  0  0
   -2.7813    2.3599    0.2469 C   0  0  0  0  0  0  0  0  0  0  0  0
   -3.4358    2.3787   -0.6248 H   0  0  0  0  0  0  0  0  0  0  0  0
   -2.2867    3.3229    0.3411 H   0  0  0  0  0  0  0  0  0  0  0  0
   -3.3892    2.1831    1.1340 H   0  0  0  0  0  0  0  0  0  0  0  0
   -3.6492   -0.2946   -0.0032 C   0  0  0  0  0  0  0  0  0  0  0  0
   -4.1582    0.2039   -0.8263 H   0  0  0  0  0  0  0  0  0  0  0  0
   -4.1228    0.0113    0.9284 H   0  0  0  0  0  0  0  0  0  0  0  0
   -3.7631   -1.3684   -0.1172 H   0  0  0  0  0  0  0  0  0  0  0  0
   -1.6517   -2.2279   -0.2574 O   0  0  0  0  0  0  0  0  0  0  0  0
   -0.8502   -2.7812   -0.4589 H   0  0  0  0  0  0  0  0  0  0  0  0
  1  6  2  0  0  0  0
  1  2  1  0  0  0  0
  2 28  1  1  0  0  0
  2  3  1  0  0  0  0
  3 24  1  0  0  0  0
  4 23  1  0  0  0  0
  4  3  1  0  0  0  0
  5  6  1  0  0  0  0
  5  4  2  0  0  0  0
  6  7  1  0  0  0  0
  7  8  1  0  0  0  0
  9  7  2  0  0  0  0
 10  5  1  0  0  0  0
 10 11  1  0  0  0  0
 11 14  1  0  0  0  0
 11 12  1  0  0  0  0
 13 11  1  0  0  0  0
 15 10  1  0  0  0  0
 15 16  1  0  0  0  0
 17 15  1  0  0  0  0
 18 15  1  0  0  0  0
 19 21  1  0  0  0  0
 19 10  1  0  0  0  0
 20 19  1  0  0  0  0
 22 19  1  0  0  0  0
 24 26  1  0  0  0  0
 24 27  1  0  0  0  0
 25 24  1  0  0  0  0
 28 30  1  0  0  0  0
 29 28  1  0  0  0  0
 31 28  1  0  0  0  0
 32  1  1  0  0  0  0
 33 32  1  0  0  0  0
M  END
>  <target>  (4)
-1.37

$$$$
-46.38023196
 OpenBabel07082014033D

 30 30  0  0  0  0  0  0  0  0999 V2000
   -0.8688   -1.0819    0.1556 C   0  0  0  0  0  0  0  0  0  0  0  0
    0.4014   -0.5853   -0.1843 C   0  0  0  0  0  0  0  0  0  0  0  0
    0.5188    0.7684   -0.5213 C   0  0  0  0  0  0  0  0  0  0  0  0
   -0.6333    1.5319   -0.5650 C   0  0  0  0  0  3  0  0  0  0  0  0
   -1.8460    1.0283   -0.3015 N   0  0  0  0  0  0  0  0  0  0  0  0
   -2.0034   -0.2499    0.0688 C   0  0  0  0  0  0  0  0  0  0  0  0
   -3.3558   -0.7780    0.3872 C   0  0  0  0  0  0  0  0  0  0  0  0
   -4.0155   -0.7043   -0.4759 H   0  0  0  0  0  0  0  0  0  0  0  0
   -3.8065   -0.2262    1.2105 H   0  0  0  0  0  0  0  0  0  0  0  0
   -3.2664   -1.8222    0.6717 H   0  0  0  0  0  0  0  0  0  0  0  0
   -3.0061    1.8877   -0.4002 C   0  0  0  0  0  0  0  0  0  0  0  0
   -2.7021    2.8819   -0.7167 H   0  0  0  0  0  0  0  0  0  0  0  0
   -3.5047    1.9576    0.5667 H   0  0  0  0  0  0  0  0  0  0  0  0
   -3.7115    1.4822   -1.1255 H   0  0  0  0  0  0  0  0  0  0  0  0
   -0.5812    2.5765   -0.8278 H   0  0  0  0  0  0  0  0  0  0  0  0
    1.8362    1.4339   -0.7666 C   0  0  0  0  0  0  0  0  0  0  0  0
    2.4533    0.7784   -1.3803 H   0  0  0  0  0  0  0  0  0  0  0  0
    1.6852    2.3792   -1.2880 H   0  0  0  0  0  0  0  0  0  0  0  0
    2.5725    1.6939    0.5567 C   0  0  0  0  0  0  0  0  0  0  0  0
    1.8338    2.6763    1.4574 C   0  0  0  0  0  0  0  0  0  0  0  0
    1.6788    3.6199    0.9407 H   0  0  0  0  0  0  0  0  0  0  0  0
    2.4176    2.8681    2.3541 H   0  0  0  0  0  0  0  0  0  0  0  0
    0.8697    2.2746    1.7591 H   0  0  0  0  0  0  0  0  0  0  0  0
    2.7127    0.7405    1.0731 H   0  0  0  0  0  0  0  0  0  0  0  0
    3.5634    2.0862    0.3229 H   0  0  0  0  0  0  0  0  0  0  0  0
    1.5628   -1.5941   -0.2327 C   0  0  0  0  0  0  0  0  0  0  0  0
    2.4804   -1.3971   -1.0372 O   0  0  0  0  0  0  0  0  0  0  0  0
    1.4435   -2.5935    0.5284 O   0  0  0  0  0  1  0  0  0  0  0  0
   -1.0516   -2.3355    0.5696 O   0  0  0  0  0  0  0  0  0  0  0  0
   -0.1248   -2.7257    0.6688 H   0  0  0  0  0  0  0  0  0  0  0  0
  1 29  1  0  0  0  0
  2  1  1  0  0  0  0
  3  2  2  0  0  0  0
  4  3  1  0  0  0  0
  4  5  1  0  0  0  0
  5  6  1  0  0  0  0
  6  1  2  0  0  0  0
  6  7  1  0  0  0  0
  7 10  1  0  0  0  0
  7  9  1  0  0  0  0
  8  7  1  0  0  0  0
 11  5  1  0  0  0  0
 11 13  1  0  0  0  0
 12 11  1  0  0  0  0
 14 11  1  0  0  0  0
 15  4  1  0  0  0  0
 16  3  1  0  0  0  0
 16 19  1  0  0  0  0
 17 16  1  0  0  0  0
 18 16  1  0  0  0  0
 19 24  1  0  0  0  0
 19 20  1  0  0  0  0
 20 23  1  0  0  0  0
 20 22  1  0  0  0  0
 21 20  1  0  0  0  0
 25 19  1  0  0  0  0
 26  2  1  0  0  0  0
 26 28  1  0  0  0  0
 27 26  2  0  0  0  0
 29 30  1  0  0  0  0
M  END
>  <target>  (5)
-1.27

$$$$
-49.54783475
 OpenBabel07082014033D

 33 33  0  0  0  0  0  0  0  0999 V2000
   -1.4184   -0.8581    0.1665 C   0  0  0  0  0  0  0  0  0  0  0  0
   -0.0658   -0.7327   -0.1933 C   0  0  0  0  0  0  0  0  0  0  0  0
    0.4170    0.5349   -0.5405 C   0  0  0  0  0  0  0  0  0  0  0  0
   -0.4805    1.5865   -0.5768 C   0  0  0  0  0  3  0  0  0  0  0  0
   -1.7815    1.4378   -0.2960 N   0  0  0  0  0  0  0  0  0  0  0  0
   -2.2805    0.2543    0.0869 C   0  0  0  0  0  0  0  0  0  0  0  0
   -3.7217    0.1215    0.4253 C   0  0  0  0  0  0  0  0  0  0  0  0
   -3.9917    0.7807    1.2487 H   0  0  0  0  0  0  0  0  0  0  0  0
   -3.9199   -0.9053    0.7182 H   0  0  0  0  0  0  0  0  0  0  0  0
   -4.3470    0.3694   -0.4309 H   0  0  0  0  0  0  0  0  0  0  0  0
   -2.6613    2.5830   -0.3896 C   0  0  0  0  0  0  0  0  0  0  0  0
   -2.0995    3.4528   -0.7198 H   0  0  0  0  0  0  0  0  0  0  0  0
   -3.4612    2.3829   -1.1024 H   0  0  0  0  0  0  0  0  0  0  0  0
   -3.1073    2.7939    0.5825 H   0  0  0  0  0  0  0  0  0  0  0  0
   -0.1462    2.5751   -0.8486 H   0  0  0  0  0  0  0  0  0  0  0  0
    1.8622    0.8053   -0.8081 C   0  0  0  0  0  0  0  0  0  0  0  0
    2.2554    0.0096   -1.4407 H   0  0  0  0  0  0  0  0  0  0  0  0
    1.9776    1.7613   -1.3190 H   0  0  0  0  0  0  0  0  0  0  0  0
    2.6789    0.8278    0.4986 C   0  0  0  0  0  0  0  0  0  0  0  0
    4.1631    0.9531    0.1672 C   0  0  0  0  0  0  0  0  0  0  0  0
    4.7566    0.9513    1.0783 H   0  0  0  0  0  0  0  0  0  0  0  0
    4.3559    1.8782   -0.3710 H   0  0  0  0  0  0  0  0  0  0  0  0
    4.4838    0.1175   -0.4509 H   0  0  0  0  0  0  0  0  0  0  0  0
    2.2362    1.9712    1.4080 C   0  0  0  0  0  0  0  0  0  0  0  0
    2.3644    2.9247    0.9018 H   0  0  0  0  0  0  0  0  0  0  0  0
    2.8391    1.9796    2.3126 H   0  0  0  0  0  0  0  0  0  0  0  0
    1.1942    1.8578    1.6961 H   0  0  0  0  0  0  0  0  0  0  0  0
    2.5155   -0.1275    1.0128 H   0  0  0  0  0  0  0  0  0  0  0  0
    0.7701   -2.0236   -0.2513 C   0  0  0  0  0  0  0  0  0  0  0  0
    0.3961   -2.9450    0.5255 O   0  0  0  0  0  1  0  0  0  0  0  0
    1.6868   -2.0942   -1.0775 O   0  0  0  0  0  0  0  0  0  0  0  0
   -1.9337   -2.0113    0.5926 O   0  0  0  0  0  0  0  0  0  0  0  0
   -1.1492   -2.6409    0.6847 H   0  0  0  0  0  0  0  0  0  0  0  0
  1 32  1  0  0  0  0
  2  1  1  0  0  0  0
  3  2  2  0  0  0  0
  4  3  1  0  0  0  0
  4  5  1  0  0  0  0
  5  6  1  0  0  0  0
  6  1  2  0  0  0  0
  6  7  1  0  0  0  0
  7  9  1  0  0  0  0
  7  8  1  0  0  0  0
 10  7  1  0  0  0  0
 11  5  1  0  0  0  0
 11 14  1  0  0  0  0
 12 11  1  0  0  0  0
 13 11  1  0  0  0  0
 15  4  1  0  0  0  0
 16  3  1  0  0  0  0
 16 19  1  0  0  0  0
 17 16  1  0  0  0  0
 18 16  1  0  0  0  0
 19 28  1  0  0  0  0
 19 24  1  0  0  0  0
 20 19  1  0  0  0  0
 20 21  1  0  0  0  0
 22 20  1  0  0  0  0
 23 20  1  0  0  0  0
 24 27  1  0  0  0  0
 24 26  1  0  0  0  0
 25 24  1  0  0  0  0
 29  2  1  0  0  0  0
 29 30  1  0  0  0  0
 31 29  2  0  0  0  0
 32 33  1  0  0  0  0
M  END
>  <target>  (6)
-1.28

$$$$
-52.71569337
 OpenBabel07082014033D

 36 36  0  0  0  0  0  0  0  0999 V2000
   -1.6595   -0.7429    0.1635 C   0  0  0  0  0  0  0  0  0  0  0  0
   -0.3134   -0.7917   -0.2407 C   0  0  0  0  0  0  0  0  0  0  0  0
    0.3190    0.4071   -0.5935 C   0  0  0  0  0  0  0  0  0  0  0  0
   -0.4433    1.5623   -0.6142 C   0  0  0  0  0  3  0  0  0  0  0  0
   -1.7433    1.5799   -0.2958 N   0  0  0  0  0  0  0  0  0  0  0  0
   -2.3749    0.4697    0.1112 C   0  0  0  0  0  0  0  0  0  0  0  0
   -3.8098    0.5212    0.4961 C   0  0  0  0  0  0  0  0  0  0  0  0
   -4.4268    0.8404   -0.3424 H   0  0  0  0  0  0  0  0  0  0  0  0
   -4.1255   -0.4709    0.8051 H   0  0  0  0  0  0  0  0  0  0  0  0
   -3.9682    1.2139    1.3210 H   0  0  0  0  0  0  0  0  0  0  0  0
   -2.4760    2.8252   -0.3777 C   0  0  0  0  0  0  0  0  0  0  0  0
   -3.3137    2.7214   -1.0671 H   0  0  0  0  0  0  0  0  0  0  0  0
   -2.8658    3.0966    0.6036 H   0  0  0  0  0  0  0  0  0  0  0  0
   -1.8196    3.6159   -0.7313 H   0  0  0  0  0  0  0  0  0  0  0  0
    0.0015    2.4981   -0.9130 H   0  0  0  0  0  0  0  0  0  0  0  0
    1.7764    0.5093   -0.9106 C   0  0  0  0  0  0  0  0  0  0  0  0
    2.1045   -0.4368   -1.3388 H   0  0  0  0  0  0  0  0  0  0  0  0
    1.9321    1.2983   -1.6473 H   0  0  0  0  0  0  0  0  0  0  0  0
    2.6580    0.8152    0.3269 C   0  0  0  0  0  0  0  0  0  0  0  0
    2.3297    2.1918    0.9078 C   0  0  0  0  0  0  0  0  0  0  0  0
    3.0045    2.4102    1.7318 H   0  0  0  0  0  0  0  0  0  0  0  0
    2.4527    2.9649    0.1538 H   0  0  0  0  0  0  0  0  0  0  0  0
    1.3127    2.2193    1.2897 H   0  0  0  0  0  0  0  0  0  0  0  0
    4.1167    0.7972   -0.1367 C   0  0  0  0  0  0  0  0  0  0  0  0
    4.2836    1.5395   -0.9133 H   0  0  0  0  0  0  0  0  0  0  0  0
    4.3751   -0.1814   -0.5355 H   0  0  0  0  0  0  0  0  0  0  0  0
    4.7818    1.0129    0.6960 H   0  0  0  0  0  0  0  0  0  0  0  0
    2.4577   -0.2546    1.4011 C   0  0  0  0  0  0  0  0  0  0  0  0
    1.4557   -0.2098    1.8243 H   0  0  0  0  0  0  0  0  0  0  0  0
    2.5970   -1.2506    0.9833 H   0  0  0  0  0  0  0  0  0  0  0  0
    3.1740   -0.1212    2.2085 H   0  0  0  0  0  0  0  0  0  0  0  0
    0.3312   -2.1857   -0.3485 C   0  0  0  0  0  0  0  0  0  0  0  0
   -0.1351   -3.0616    0.4302 O   0  0  0  0  0  1  0  0  0  0  0  0
    1.1922   -2.3700   -1.2171 O   0  0  0  0  0  0  0  0  0  0  0  0
   -2.3058   -1.8222    0.6055 O   0  0  0  0  0  0  0  0  0  0  0  0
   -1.6080   -2.5514    0.6613 H   0  0  0  0  0  0  0  0  0  0  0  0
  1 35  1  0  0  0  0
  2  1  1  0  0  0  0
  3  2  2  0  0  0  0
  4  3  1  0  0  0  0
  4  5  1  0  0  0  0
  5  6  1  0  0  0  0
  6  1  2  0  0  0  0
  6  7  1  0  0  0  0
  7  9  1  0  0  0  0
  7 10  1  0  0  0  0
  8  7  1  0  0  0  0
 11  5  1  0  0  0  0
 11 13  1  0  0  0  0
 12 11  1  0  0  0  0
 14 11  1  0  0  0  0
 15  4  1  0  0  0  0
 16  3  1  0  0  0  0
 16 19  1  0  0  0  0
 17 16  1  0  0  0  0
 18 16  1  0  0  0  0
 19 20  1  0  0  0  0
 19 28  1  0  0  0  0
 20 23  1  0  0  0  0
 20 21  1  0  0  0  0
 22 20  1  0  0  0  0
 24 19  1  0  0  0  0
 24 27  1  0  0  0  0
 25 24  1  0  0  0  0
 26 24  1  0  0  0  0
 28 29  1  0  0  0  0
 28 31  1  0  0  0  0
 30 28  1  0  0  0  0
 32  2  1  0  0  0  0
 32 33  1  0  0  0  0
 34 32  2  0  0  0  0
 35 36  1  0  0  0  0
M  END
>  <target>  (7)
-1.35

$$$$
-49.54496204
 OpenBabel07082014033D

 33 33  0  0  0  0  0  0  0  0999 V2000
   -1.2976    0.8884   -0.2639 C   0  0  0  0  0  0  0  0  0  0  0  0
   -0.0384    0.7037    0.3362 C   0  0  0  0  0  0  0  0  0  0  0  0
    0.2838   -0.5680    0.8226 C   0  0  0  0  0  0  0  0  0  0  0  0
   -0.6794   -1.5590    0.7498 C   0  0  0  0  0  3  0  0  0  0  0  0
   -1.8980   -1.3489    0.2385 N   0  0  0  0  0  0  0  0  0  0  0  0
   -2.2375   -0.1615   -0.2826 C   0  0  0  0  0  0  0  0  0  0  0  0
   -3.5861    0.0397   -0.8746 C   0  0  0  0  0  0  0  0  0  0  0  0
   -3.6588    1.0587   -1.2431 H   0  0  0  0  0  0  0  0  0  0  0  0
   -3.7547   -0.6463   -1.7031 H   0  0  0  0  0  0  0  0  0  0  0  0
   -4.3658   -0.1219   -0.1321 H   0  0  0  0  0  0  0  0  0  0  0  0
   -2.8618   -2.4284    0.2356 C   0  0  0  0  0  0  0  0  0  0  0  0
   -2.4264   -3.3121    0.6944 H   0  0  0  0  0  0  0  0  0  0  0  0
   -3.7509   -2.1372    0.7949 H   0  0  0  0  0  0  0  0  0  0  0  0
   -3.1570   -2.6648   -0.7868 H   0  0  0  0  0  0  0  0  0  0  0  0
   -0.4661   -2.5469    1.1266 H   0  0  0  0  0  0  0  0  0  0  0  0
    1.6333   -0.9450    1.3530 C   0  0  0  0  0  0  0  0  0  0  0  0
    1.5121   -1.6078    2.2108 H   0  0  0  0  0  0  0  0  0  0  0  0
    2.1587   -0.0490    1.6773 H   0  0  0  0  0  0  0  0  0  0  0  0
    2.4612   -1.6645    0.2775 C   0  0  0  0  0  0  0  0  0  0  0  0
    2.7795   -0.7652   -0.9140 C   0  0  0  0  0  0  0  0  0  0  0  0
    3.6826   -1.4663   -1.9220 C   0  0  0  0  0  0  0  0  0  0  0  0
    4.6260   -1.7435   -1.4575 H   0  0  0  0  0  0  0  0  0  0  0  0
    3.8944   -0.8103   -2.7627 H   0  0  0  0  0  0  0  0  0  0  0  0
    3.2043   -2.3674   -2.2982 H   0  0  0  0  0  0  0  0  0  0  0  0
    1.8525   -0.4604   -1.4075 H   0  0  0  0  0  0  0  0  0  0  0  0
    3.2628    0.1484   -0.5563 H   0  0  0  0  0  0  0  0  0  0  0  0
    1.9255   -2.5494   -0.0723 H   0  0  0  0  0  0  0  0  0  0  0  0
    3.3974   -1.9918    0.7322 H   0  0  0  0  0  0  0  0  0  0  0  0
    0.8676    1.9414    0.4646 C   0  0  0  0  0  0  0  0  0  0  0  0
    0.6846    2.8392   -0.4026 O   0  0  0  0  0  0  0  0  0  0  0  0
    1.6536    2.0021    1.4173 O   0  0  0  0  0  1  0  0  0  0  0  0
   -1.6492    2.0410   -0.8323 O   0  0  0  0  0  0  0  0  0  0  0  0
   -0.8171    2.6161   -0.8146 H   0  0  0  0  0  0  0  0  0  0  0  0
  1  2  1  0  0  0  0
  2 29  1  0  0  0  0
  2  3  2  0  0  0  0
  3 16  1  0  0  0  0
  4  3  1  0  0  0  0
  4 15  1  0  0  0  0
  5  4  1  0  0  0  0
  6  1  2  0  0  0  0
  6  5  1  0  0  0  0
  7  6  1  0  0  0  0
  7 10  1  0  0  0  0
  8  7  1  0  0  0  0
  9  7  1  0  0  0  0
 11  5  1  0  0  0  0
 11 12  1  0  0  0  0
 11 13  1  0  0  0  0
 14 11  1  0  0  0  0
 16 18  1  0  0  0  0
 16 17  1  0  0  0  0
 19 28  1  0  0  0  0
 19 16  1  0  0  0  0
 20 26  1  0  0  0  0
 20 19  1  0  0  0  0
 21 22  1  0  0  0  0
 21 20  1  0  0  0  0
 23 21  1  0  0  0  0
 24 21  1  0  0  0  0
 25 20  1  0  0  0  0
 27 19  1  0  0  0  0
 29 31  1  0  0  0  0
 30 29  2  0  0  0  0
 32 33  1  0  0  0  0
 32  1  1  0  0  0  0
M  END
>  <target>  (8)
-1.25

$$$$
-51.76646659
 OpenBabel07082014033D

 31 32  0  0  0  0  0  0  0  0999 V2000
   -1.9833   -0.6907    0.0401 C   0  0  0  0  0  0  0  0  0  0  0  0
   -0.5828   -0.7419   -0.0361 C   0  0  0  0  0  0  0  0  0  0  0  0
    0.1336    0.4587    0.0060 C   0  0  0  0  0  0  0  0  0  0  0  0
   -0.5748    1.6477    0.0424 C   0  0  0  0  0  3  0  0  0  0  0  0
   -1.9135    1.6809    0.0476 N   0  0  0  0  0  0  0  0  0  0  0  0
   -2.6433    0.5554    0.0625 C   0  0  0  0  0  0  0  0  0  0  0  0
   -4.1269    0.6231    0.1025 C   0  0  0  0  0  0  0  0  0  0  0  0
   -4.4692    1.1445    0.9951 H   0  0  0  0  0  0  0  0  0  0  0  0
   -4.5179    1.1453   -0.7693 H   0  0  0  0  0  0  0  0  0  0  0  0
   -4.5236   -0.3880    0.1131 H   0  0  0  0  0  0  0  0  0  0  0  0
   -2.5874    2.9616    0.0583 C   0  0  0  0  0  0  0  0  0  0  0  0
   -1.8544    3.7638    0.0431 H   0  0  0  0  0  0  0  0  0  0  0  0
   -3.2332    3.0512   -0.8153 H   0  0  0  0  0  0  0  0  0  0  0  0
   -3.2010    3.0555    0.9545 H   0  0  0  0  0  0  0  0  0  0  0  0
   -0.0502    2.5895    0.0738 H   0  0  0  0  0  0  0  0  0  0  0  0
    1.6031    0.5043    0.0574 C   0  0  0  0  0  0  0  0  0  0  0  0
    2.3160    1.3197   -0.8157 C   0  0  0  0  0  0  0  0  0  0  0  0
    3.6958    1.3790   -0.7430 C   0  0  0  0  0  0  0  0  0  0  0  0
    4.3738    0.6387    0.2103 C   0  0  0  0  0  0  0  0  0  0  0  0
    3.6678   -0.1657    1.0903 C   0  0  0  0  0  0  0  0  0  0  0  0
    2.2898   -0.2344    1.0158 C   0  0  0  0  0  0  0  0  0  0  0  0
    1.7374   -0.8647    1.6989 H   0  0  0  0  0  0  0  0  0  0  0  0
    4.1918   -0.7466    1.8346 H   0  0  0  0  0  0  0  0  0  0  0  0
    5.4508    0.6827    0.2670 H   0  0  0  0  0  0  0  0  0  0  0  0
    4.2434    2.0017   -1.4339 H   0  0  0  0  0  0  0  0  0  0  0  0
    1.7903    1.8796   -1.5743 H   0  0  0  0  0  0  0  0  0  0  0  0
    0.0764   -2.1046   -0.2966 C   0  0  0  0  0  0  0  0  0  0  0  0
   -0.5695   -3.1066    0.1161 O   0  0  0  0  0  1  0  0  0  0  0  0
    1.1317   -2.1161   -0.9395 O   0  0  0  0  0  0  0  0  0  0  0  0
   -2.7246   -1.7958    0.0897 O   0  0  0  0  0  0  0  0  0  0  0  0
   -2.0691   -2.5631    0.1339 H   0  0  0  0  0  0  0  0  0  0  0  0
  1  6  2  0  0  0  0
  1 30  1  0  0  0  0
  2  3  2  0  0  0  0
  2  1  1  0  0  0  0
  3  4  1  0  0  0  0
  3 16  1  0  0  0  0
  4  5  1  0  0  0  0
  4 15  1  0  0  0  0
  5 11  1  0  0  0  0
  5  6  1  0  0  0  0
  6  7  1  0  0  0  0
  7 10  1  0  0  0  0
  7  8  1  0  0  0  0
  9  7  1  0  0  0  0
 11 14  1  0  0  0  0
 12 11  1  0  0  0  0
 13 11  1  0  0  0  0
 16 21  1  0  0  0  0
 17 18  1  0  0  0  0
 17 16  2  0  0  0  0
 18 19  2  0  0  0  0
 19 24  1  0  0  0  0
 19 20  1  0  0  0  0
 20 23  1  0  0  0  0
 21 20  2  0  0  0  0
 21 22  1  0  0  0  0
 25 18  1  0  0  0  0
 26 17  1  0  0  0  0
 27  2  1  0  0  0  0
 27 28  1  0  0  0  0
 29 27  2  0  0  0  0
 30 31  1  0  0  0  0
M  END
>  <target>  (9)
-1.2

$$$$
-54.93834787
 OpenBabel07082014033D

 34 35  0  0  0  0  0  0  0  0999 V2000
   -2.3379   -0.6305   -0.0587 C   0  0  0  0  0  0  0  0  0  0  0  0
   -0.9423   -0.7400    0.0379 C   0  0  0  0  0  0  0  0  0  0  0  0
   -0.1751    0.4300    0.0100 C   0  0  0  0  0  0  0  0  0  0  0  0
   -0.8349    1.6471   -0.0297 C   0  0  0  0  0  3  0  0  0  0  0  0
   -2.1706    1.7356   -0.0512 N   0  0  0  0  0  0  0  0  0  0  0  0
   -2.9461    0.6412   -0.0828 C   0  0  0  0  0  0  0  0  0  0  0  0
   -4.4252    0.7704   -0.1427 C   0  0  0  0  0  0  0  0  0  0  0  0
   -4.7333    1.3092   -1.0374 H   0  0  0  0  0  0  0  0  0  0  0  0
   -4.8065    1.3041    0.7263 H   0  0  0  0  0  0  0  0  0  0  0  0
   -4.8625   -0.2236   -0.1639 H   0  0  0  0  0  0  0  0  0  0  0  0
   -2.7912    3.0431   -0.0632 C   0  0  0  0  0  0  0  0  0  0  0  0
   -3.4443    3.1543    0.8025 H   0  0  0  0  0  0  0  0  0  0  0  0
   -3.3882    3.1671   -0.9668 H   0  0  0  0  0  0  0  0  0  0  0  0
   -2.0258    3.8140   -0.0333 H   0  0  0  0  0  0  0  0  0  0  0  0
   -0.2720    2.5668   -0.0507 H   0  0  0  0  0  0  0  0  0  0  0  0
    1.2934    0.4148   -0.0248 C   0  0  0  0  0  0  0  0  0  0  0  0
    2.0340    1.2244    0.8302 C   0  0  0  0  0  0  0  0  0  0  0  0
    3.4146    1.2242    0.7719 C   0  0  0  0  0  0  0  0  0  0  0  0
    4.0902    0.4323   -0.1476 C   0  0  0  0  0  0  0  0  0  0  0  0
    3.3435   -0.3653   -1.0094 C   0  0  0  0  0  0  0  0  0  0  0  0
    1.9652   -0.3788   -0.9500 C   0  0  0  0  0  0  0  0  0  0  0  0
    1.3985   -1.0066   -1.6244 H   0  0  0  0  0  0  0  0  0  0  0  0
    3.8500   -0.9886   -1.7322 H   0  0  0  0  0  0  0  0  0  0  0  0
    5.5860    0.4156   -0.2034 C   0  0  0  0  0  0  0  0  0  0  0  0
    6.0040    1.2820    0.3018 H   0  0  0  0  0  0  0  0  0  0  0  0
    5.9613   -0.4823    0.2876 H   0  0  0  0  0  0  0  0  0  0  0  0
    5.9322    0.4003   -1.2343 H   0  0  0  0  0  0  0  0  0  0  0  0
    3.9762    1.8455    1.4537 H   0  0  0  0  0  0  0  0  0  0  0  0
    1.5277    1.8287    1.5677 H   0  0  0  0  0  0  0  0  0  0  0  0
   -0.3487   -2.1302    0.3081 C   0  0  0  0  0  0  0  0  0  0  0  0
   -1.0209   -3.1018   -0.1350 O   0  0  0  0  0  0  0  0  0  0  0  0
    0.6808   -2.1907    0.9892 O   0  0  0  0  0  1  0  0  0  0  0  0
   -3.1235   -1.7047   -0.1254 O   0  0  0  0  0  0  0  0  0  0  0  0
   -2.4996   -2.4972   -0.1677 H   0  0  0  0  0  0  0  0  0  0  0  0
  1  2  1  0  0  0  0
  2 30  1  0  0  0  0
  3  2  2  0  0  0  0
  4  3  1  0  0  0  0
  5  4  1  0  0  0  0
  6  1  2  0  0  0  0
  6  5  1  0  0  0  0
  7  6  1  0  0  0  0
  7  9  1  0  0  0  0
  8  7  1  0  0  0  0
 10  7  1  0  0  0  0
 11  5  1  0  0  0  0
 11 14  1  0  0  0  0
 11 12  1  0  0  0  0
 13 11  1  0  0  0  0
 15  4  1  0  0  0  0
 16  3  1  0  0  0  0
 16 17  1  0  0  0  0
 17 29  1  0  0  0  0
 18 17  2  0  0  0  0
 18 28  1  0  0  0  0
 19 18  1  0  0  0  0
 20 21  1  0  0  0  0
 20 19  2  0  0  0  0
 21 16  2  0  0  0  0
 22 21  1  0  0  0  0
 23 20  1  0  0  0  0
 24 19  1  0  0  0  0
 24 26  1  0  0  0  0
 24 25  1  0  0  0  0
 27 24  1  0  0  0  0
 30 32  1  0  0  0  0
 31 30  2  0  0  0  0
 33  1  1  0  0  0  0
 34 33  1  0  0  0  0
M  END
>  <target>  (10)
-1.21

$$$$
-58.10298521
 OpenBabel07082014033D

 37 38  0  0  0  0  0  0  0  0999 V2000
   -2.6374   -0.6785    0.0311 C   0  0  0  0  0  0  0  0  0  0  0  0
   -1.2369   -0.7433   -0.0247 C   0  0  0  0  0  0  0  0  0  0  0  0
   -0.5089    0.4511    0.0138 C   0  0  0  0  0  0  0  0  0  0  0  0
   -1.2086    1.6464    0.0226 C   0  0  0  0  0  3  0  0  0  0  0  0
   -2.5465    1.6916    0.0051 N   0  0  0  0  0  0  0  0  0  0  0  0
   -3.2868    0.5729    0.0260 C   0  0  0  0  0  0  0  0  0  0  0  0
   -4.7704    0.6544    0.0434 C   0  0  0  0  0  0  0  0  0  0  0  0
   -5.1441    1.1619   -0.8445 H   0  0  0  0  0  0  0  0  0  0  0  0
   -5.1760   -0.3528    0.0682 H   0  0  0  0  0  0  0  0  0  0  0  0
   -5.1208    1.1965    0.9203 H   0  0  0  0  0  0  0  0  0  0  0  0
   -3.2088    2.9785   -0.0143 C   0  0  0  0  0  0  0  0  0  0  0  0
   -2.4679    3.7732   -0.0383 H   0  0  0  0  0  0  0  0  0  0  0  0
   -3.8289    3.0954    0.8747 H   0  0  0  0  0  0  0  0  0  0  0  0
   -3.8463    3.0573   -0.8949 H   0  0  0  0  0  0  0  0  0  0  0  0
   -0.6766    2.5841    0.0511 H   0  0  0  0  0  0  0  0  0  0  0  0
    0.9577    0.4843    0.0926 C   0  0  0  0  0  0  0  0  0  0  0  0
    1.6259   -0.2838    1.0410 C   0  0  0  0  0  0  0  0  0  0  0  0
    3.0012   -0.2240    1.1430 C   0  0  0  0  0  0  0  0  0  0  0  0
    3.7452    0.5982    0.3046 C   0  0  0  0  0  0  0  0  0  0  0  0
    3.0734    1.3641   -0.6399 C   0  0  0  0  0  0  0  0  0  0  0  0
    1.6968    1.3170   -0.7422 C   0  0  0  0  0  0  0  0  0  0  0  0
    1.1934    1.9018   -1.4973 H   0  0  0  0  0  0  0  0  0  0  0  0
    3.6367    2.0032   -1.3038 H   0  0  0  0  0  0  0  0  0  0  0  0
    5.2440    0.6184    0.3825 C   0  0  0  0  0  0  0  0  0  0  0  0
    5.6163    1.6064    0.1069 H   0  0  0  0  0  0  0  0  0  0  0  0
    5.5639    0.3995    1.4026 H   0  0  0  0  0  0  0  0  0  0  0  0
    5.8382   -0.4257   -0.5660 C   0  0  0  0  0  0  0  0  0  0  0  0
    6.9234   -0.4239   -0.5012 H   0  0  0  0  0  0  0  0  0  0  0  0
    5.5480   -0.2144   -1.5926 H   0  0  0  0  0  0  0  0  0  0  0  0
    5.4742   -1.4188   -0.3108 H   0  0  0  0  0  0  0  0  0  0  0  0
    3.5050   -0.8286    1.8837 H   0  0  0  0  0  0  0  0  0  0  0  0
    1.0599   -0.9287    1.6995 H   0  0  0  0  0  0  0  0  0  0  0  0
   -0.5913   -2.1164   -0.2627 C   0  0  0  0  0  0  0  0  0  0  0  0
    0.4565   -2.1506   -0.9170 O   0  0  0  0  0  0  0  0  0  0  0  0
   -1.2427   -3.1040    0.1758 O   0  0  0  0  0  1  0  0  0  0  0  0
   -3.3895   -1.7770    0.0865 O   0  0  0  0  0  0  0  0  0  0  0  0
   -2.7423   -2.5482    0.1568 H   0  0  0  0  0  0  0  0  0  0  0  0
  1 36  1  0  0  0  0
  2  3  2  0  0  0  0
  2  1  1  0  0  0  0
  3  4  1  0  0  0  0
  3 16  1  0  0  0  0
  4 15  1  0  0  0  0
  5  4  1  0  0  0  0
  5  6  1  0  0  0  0
  6  1  2  0  0  0  0
  6  7  1  0  0  0  0
  7  9  1  0  0  0  0
  7 10  1  0  0  0  0
  8  7  1  0  0  0  0
 11  5  1  0  0  0  0
 11 13  1  0  0  0  0
 12 11  1  0  0  0  0
 14 11  1  0  0  0  0
 16 17  1  0  0  0  0
 17 18  2  0  0  0  0
 17 32  1  0  0  0  0
 18 31  1  0  0  0  0
 19 24  1  0  0  0  0
 19 18  1  0  0  0  0
 20 19  2  0  0  0  0
 21 20  1  0  0  0  0
 21 16  2  0  0  0  0
 22 21  1  0  0  0  0
 23 20  1  0  0  0  0
 24 26  1  0  0  0  0
 25 24  1  0  0  0  0
 27 28  1  0  0  0  0
 27 30  1  0  0  0  0
 27 24  1  0  0  0  0
 29 27  1  0  0  0  0
 33  2  1  0  0  0  0
 33 35  1  0  0  0  0
 34 33  2  0  0  0  0
 36 37  1  0  0  0  0
M  END
>  <target>  (11)
-1.22

$$$$
-61.26902848
 OpenBabel07082014033D

 40 41  0  0  0  0  0  0  0  0999 V2000
   -2.9895   -0.5316   -0.0612 C   0  0  0  0  0  0  0  0  0  0  0  0
   -1.6027   -0.7321    0.0121 C   0  0  0  0  0  0  0  0  0  0  0  0
   -0.7633    0.3873    0.0132 C   0  0  0  0  0  0  0  0  0  0  0  0
   -1.3449    1.6443    0.0268 C   0  0  0  0  0  3  0  0  0  0  0  0
   -2.6724    1.8174    0.0285 N   0  0  0  0  0  0  0  0  0  0  0  0
   -3.5161    0.7759   -0.0317 C   0  0  0  0  0  0  0  0  0  0  0  0
   -4.9845    1.0004   -0.0677 C   0  0  0  0  0  0  0  0  0  0  0  0
   -5.3227    1.5195    0.8277 H   0  0  0  0  0  0  0  0  0  0  0  0
   -5.4843    0.0377   -0.1245 H   0  0  0  0  0  0  0  0  0  0  0  0
   -5.2668    1.5952   -0.9349 H   0  0  0  0  0  0  0  0  0  0  0  0
   -3.2086    3.1611    0.0715 C   0  0  0  0  0  0  0  0  0  0  0  0
   -3.8507    3.2795    0.9442 H   0  0  0  0  0  0  0  0  0  0  0  0
   -3.7992    3.3584   -0.8234 H   0  0  0  0  0  0  0  0  0  0  0  0
   -2.3955    3.8801    0.1270 H   0  0  0  0  0  0  0  0  0  0  0  0
   -0.7251    2.5268    0.0294 H   0  0  0  0  0  0  0  0  0  0  0  0
    0.7006    0.2813   -0.0495 C   0  0  0  0  0  0  0  0  0  0  0  0
    1.3047   -0.5201   -1.0120 C   0  0  0  0  0  0  0  0  0  0  0  0
    2.6812   -0.5875   -1.0983 C   0  0  0  0  0  0  0  0  0  0  0  0
    3.4929    0.1335   -0.2303 C   0  0  0  0  0  0  0  0  0  0  0  0
    2.8823    0.9337    0.7285 C   0  0  0  0  0  0  0  0  0  0  0  0
    1.5068    1.0152    0.8153 C   0  0  0  0  0  0  0  0  0  0  0  0
    1.0526    1.6235    1.5830 H   0  0  0  0  0  0  0  0  0  0  0  0
    3.4862    1.4990    1.4215 H   0  0  0  0  0  0  0  0  0  0  0  0
    4.9948    0.0393   -0.3305 C   0  0  0  0  0  0  0  0  0  0  0  0
    5.6109    1.4075   -0.6327 C   0  0  0  0  0  0  0  0  0  0  0  0
    6.6857    1.3102   -0.7653 H   0  0  0  0  0  0  0  0  0  0  0  0
    5.1842    1.8206   -1.5436 H   0  0  0  0  0  0  0  0  0  0  0  0
    5.4264    2.1023    0.1819 H   0  0  0  0  0  0  0  0  0  0  0  0
    5.5831   -0.5510    0.9535 C   0  0  0  0  0  0  0  0  0  0  0  0
    6.6551   -0.6956    0.8428 H   0  0  0  0  0  0  0  0  0  0  0  0
    5.1231   -1.5130    1.1715 H   0  0  0  0  0  0  0  0  0  0  0  0
    5.4092    0.1097    1.7986 H   0  0  0  0  0  0  0  0  0  0  0  0
    5.2371   -0.6368   -1.1578 H   0  0  0  0  0  0  0  0  0  0  0  0
    3.1315   -1.2183   -1.8519 H   0  0  0  0  0  0  0  0  0  0  0  0
    0.6895   -1.0913   -1.6940 H   0  0  0  0  0  0  0  0  0  0  0  0
   -1.0950   -2.1659    0.2247 C   0  0  0  0  0  0  0  0  0  0  0  0
   -0.0648   -2.3150    0.8909 O   0  0  0  0  0  1  0  0  0  0  0  0
   -1.8314   -3.0764   -0.2449 O   0  0  0  0  0  0  0  0  0  0  0  0
   -3.8422   -1.5511   -0.1564 O   0  0  0  0  0  0  0  0  0  0  0  0
   -3.2704   -2.3789   -0.2368 H   0  0  0  0  0  0  0  0  0  0  0  0
  1  6  2  0  0  0  0
  1  2  1  0  0  0  0
  2  3  2  0  0  0  0
  2 36  1  0  0  0  0
  3  4  1  0  0  0  0
  4  5  1  0  0  0  0
  4 15  1  0  0  0  0
  5 11  1  0  0  0  0
  6  5  1  0  0  0  0
  7  6  1  0  0  0  0
  7  8  1  0  0  0  0
  9  7  1  0  0  0  0
 10  7  1  0  0  0  0
 11 14  1  0  0  0  0
 11 12  1  0  0  0  0
 13 11  1  0  0  0  0
 16  3  1  0  0  0  0
 16 21  1  0  0  0  0
 17 16  2  0  0  0  0
 18 17  1  0  0  0  0
 18 19  2  0  0  0  0
 19 20  1  0  0  0  0
 20 21  2  0  0  0  0
 20 23  1  0  0  0  0
 21 22  1  0  0  0  0
 24 19  1  0  0  0  0
 24 29  1  0  0  0  0
 25 24  1  0  0  0  0
 25 28  1  0  0  0  0
 26 25  1  0  0  0  0
 27 25  1  0  0  0  0
 29 31  1  0  0  0  0
 29 32  1  0  0  0  0
 30 29  1  0  0  0  0
 33 24  1  0  0  0  0
 34 18  1  0  0  0  0
 35 17  1  0  0  0  0
 36 37  1  0  0  0  0
 38 36  2  0  0  0  0
 39  1  1  0  0  0  0
 40 39  1  0  0  0  0
M  END
>  <target>  (12)
-1.22

$$$$
-64.43410716
 OpenBabel07082014033D

 43 44  0  0  0  0  0  0  0  0999 V2000
   -3.2371   -0.5672    0.0758 C   0  0  0  0  0  0  0  0  0  0  0  0
   -1.8487   -0.7353   -0.0383 C   0  0  0  0  0  0  0  0  0  0  0  0
   -1.0331    0.4015   -0.0249 C   0  0  0  0  0  0  0  0  0  0  0  0
   -1.6410    1.6454    0.0172 C   0  0  0  0  0  3  0  0  0  0  0  0
   -2.9714    1.7897    0.0546 N   0  0  0  0  0  0  0  0  0  0  0  0
   -3.7914    0.7288    0.1018 C   0  0  0  0  0  0  0  0  0  0  0  0
   -5.2629    0.9201    0.1795 C   0  0  0  0  0  0  0  0  0  0  0  0
   -5.6334    1.4577   -0.6919 H   0  0  0  0  0  0  0  0  0  0  0  0
   -5.5367    1.4830    1.0704 H   0  0  0  0  0  0  0  0  0  0  0  0
   -5.7408   -0.0544    0.2192 H   0  0  0  0  0  0  0  0  0  0  0  0
   -3.5364    3.1221    0.0681 C   0  0  0  0  0  0  0  0  0  0  0  0
   -4.2019    3.2543   -0.7850 H   0  0  0  0  0  0  0  0  0  0  0  0
   -4.1090    3.2779    0.9826 H   0  0  0  0  0  0  0  0  0  0  0  0
   -2.7401    3.8600    0.0167 H   0  0  0  0  0  0  0  0  0  0  0  0
   -1.0399    2.5407    0.0273 H   0  0  0  0  0  0  0  0  0  0  0  0
    0.4334    0.3259   -0.0060 C   0  0  0  0  0  0  0  0  0  0  0  0
    1.2016    1.1032   -0.8671 C   0  0  0  0  0  0  0  0  0  0  0  0
    2.5792    1.0444   -0.8207 C   0  0  0  0  0  0  0  0  0  0  0  0
    3.2450    0.2272    0.0903 C   0  0  0  0  0  0  0  0  0  0  0  0
    2.4669   -0.5342    0.9557 C   0  0  0  0  0  0  0  0  0  0  0  0
    1.0864   -0.4899    0.9090 C   0  0  0  0  0  0  0  0  0  0  0  0
    0.5059   -1.0962    1.5915 H   0  0  0  0  0  0  0  0  0  0  0  0
    2.9260   -1.1845    1.6821 H   0  0  0  0  0  0  0  0  0  0  0  0
    4.7647    0.1966    0.0979 C   0  0  0  0  0  0  0  0  0  0  0  0
    5.2956    1.6095    0.3809 C   0  0  0  0  0  0  0  0  0  0  0  0
    4.9767    2.3127   -0.3825 H   0  0  0  0  0  0  0  0  0  0  0  0
    4.9326    1.9597    1.3446 H   0  0  0  0  0  0  0  0  0  0  0  0
    6.3827    1.5991    0.4033 H   0  0  0  0  0  0  0  0  0  0  0  0
    5.2548   -0.2791   -1.2776 C   0  0  0  0  0  0  0  0  0  0  0  0
    6.3398   -0.3523   -1.2827 H   0  0  0  0  0  0  0  0  0  0  0  0
    4.9544    0.4057   -2.0653 H   0  0  0  0  0  0  0  0  0  0  0  0
    4.8402   -1.2597   -1.5042 H   0  0  0  0  0  0  0  0  0  0  0  0
    5.3305   -0.7494    1.1603 C   0  0  0  0  0  0  0  0  0  0  0  0
    6.4173   -0.7333    1.1171 H   0  0  0  0  0  0  0  0  0  0  0  0
    5.0284   -0.4429    2.1590 H   0  0  0  0  0  0  0  0  0  0  0  0
    5.0029   -1.7720    0.9868 H   0  0  0  0  0  0  0  0  0  0  0  0
    3.1420    1.6476   -1.5160 H   0  0  0  0  0  0  0  0  0  0  0  0
    0.7166    1.7278   -1.6022 H   0  0  0  0  0  0  0  0  0  0  0  0
   -1.3175   -2.1507   -0.3080 C   0  0  0  0  0  0  0  0  0  0  0  0
   -2.0209   -3.0902    0.1556 O   0  0  0  0  0  1  0  0  0  0  0  0
   -0.3042   -2.2583   -1.0071 O   0  0  0  0  0  0  0  0  0  0  0  0
   -4.0656   -1.6077    0.1586 O   0  0  0  0  0  0  0  0  0  0  0  0
   -3.4745   -2.4248    0.1999 H   0  0  0  0  0  0  0  0  0  0  0  0
  1  6  2  0  0  0  0
  1 42  1  0  0  0  0
  2  3  2  0  0  0  0
  2  1  1  0  0  0  0
  3 16  1  0  0  0  0
  3  4  1  0  0  0  0
  4 15  1  0  0  0  0
  4  5  1  0  0  0  0
  5 11  1  0  0  0  0
  5  6  1  0  0  0  0
  6  7  1  0  0  0  0
  7 10  1  0  0  0  0
  7  9  1  0  0  0  0
  8  7  1  0  0  0  0
 11 13  1  0  0  0  0
 12 11  1  0  0  0  0
 14 11  1  0  0  0  0
 16 21  1  0  0  0  0
 17 18  1  0  0  0  0
 17 16  2  0  0  0  0
 18 19  2  0  0  0  0
 19 24  1  0  0  0  0
 19 20  1  0  0  0  0
 20 23  1  0  0  0  0
 21 20  2  0  0  0  0
 21 22  1  0  0  0  0
 24 25  1  0  0  0  0
 24 33  1  0  0  0  0
 25 28  1  0  0  0  0
 25 27  1  0  0  0  0
 26 25  1  0  0  0  0
 29 24  1  0  0  0  0
 30 29  1  0  0  0  0
 31 29  1  0  0  0  0
 32 29  1  0  0  0  0
 33 35  1  0  0  0  0
 34 33  1  0  0  0  0
 36 33  1  0  0  0  0
 37 18  1  0  0  0  0
 38 17  1  0  0  0  0
 39  2  1  0  0  0  0
 39 40  1  0  0  0  0
 41 39  2  0  0  0  0
 42 43  1  0  0  0  0
M  END
>  <target>  (13)
-1.21

$$$$
-55.81955986
 OpenBabel07082014033D

 31 31  0  0  0  0  0  0  0  0999 V2000
   -2.7828   -0.6083    0.0562 C   0  0  0  0  0  0  0  0  0  0  0  0
   -1.3880   -0.7395   -0.0350 C   0  0  0  0  0  0  0  0  0  0  0  0
   -0.6053    0.4192   -0.0075 C   0  0  0  0  0  0  0  0  0  0  0  0
   -1.2417    1.6475    0.0343 C   0  0  0  0  0  3  0  0  0  0  0  0
   -2.5763    1.7566    0.0602 N   0  0  0  0  0  0  0  0  0  0  0  0
   -3.3689    0.6750    0.0866 C   0  0  0  0  0  0  0  0  0  0  0  0
   -4.8450    0.8276    0.1476 C   0  0  0  0  0  0  0  0  0  0  0  0
   -5.2991   -0.1589    0.1660 H   0  0  0  0  0  0  0  0  0  0  0  0
   -5.2180    1.3705   -0.7195 H   0  0  0  0  0  0  0  0  0  0  0  0
   -5.1440    1.3692    1.0436 H   0  0  0  0  0  0  0  0  0  0  0  0
   -3.1755    3.0736    0.0791 C   0  0  0  0  0  0  0  0  0  0  0  0
   -3.8304    3.1987   -0.7834 H   0  0  0  0  0  0  0  0  0  0  0  0
   -2.3985    3.8329    0.0493 H   0  0  0  0  0  0  0  0  0  0  0  0
   -3.7673    3.2040    0.9854 H   0  0  0  0  0  0  0  0  0  0  0  0
   -0.6629    2.5572    0.0544 H   0  0  0  0  0  0  0  0  0  0  0  0
    0.8660    0.3766    0.0145 C   0  0  0  0  0  0  0  0  0  0  0  0
    1.6087    1.1104   -0.9047 C   0  0  0  0  0  0  0  0  0  0  0  0
    2.9908    1.0794   -0.8771 C   0  0  0  0  0  0  0  0  0  0  0  0
    3.6286    0.3201    0.0886 C   0  0  0  0  0  3  0  0  0  0  0  0
    2.9072   -0.4012    1.0262 C   0  0  0  0  0  0  0  0  0  0  0  0
    1.5272   -0.3701    0.9846 C   0  0  0  0  0  0  0  0  0  0  0  0
    0.9572   -0.9354    1.7068 H   0  0  0  0  0  0  0  0  0  0  0  0
    3.4192   -0.9861    1.7737 H   0  0  0  0  0  0  0  0  0  0  0  0
    5.3621    0.2613    0.1241 *   0  0  0  0  0  0  0  0  0  0  0  0
    3.5690    1.6324   -1.5994 H   0  0  0  0  0  0  0  0  0  0  0  0
    1.1061    1.6814   -1.6694 H   0  0  0  0  0  0  0  0  0  0  0  0
   -0.8039   -2.1376   -0.2939 C   0  0  0  0  0  0  0  0  0  0  0  0
   -1.5161   -3.1029    0.0952 O   0  0  0  0  0  1  0  0  0  0  0  0
    0.2659   -2.2058   -0.9085 O   0  0  0  0  0  0  0  0  0  0  0  0
   -3.5856   -1.6670    0.1131 O   0  0  0  0  0  0  0  0  0  0  0  0
   -2.9748   -2.4728    0.1406 H   0  0  0  0  0  0  0  0  0  0  0  0
  1  6  2  0  0  0  0
  1 30  1  0  0  0  0
  2  3  2  0  0  0  0
  2  1  1  0  0  0  0
  3 16  1  0  0  0  0
  3  4  1  0  0  0  0
  4 15  1  0  0  0  0
  4  5  1  0  0  0  0
  5 11  1  0  0  0  0
  5  6  1  0  0  0  0
  6  7  1  0  0  0  0
  7  8  1  0  0  0  0
  7 10  1  0  0  0  0
  9  7  1  0  0  0  0
 11 14  1  0  0  0  0
 12 11  1  0  0  0  0
 13 11  1  0  0  0  0
 16 21  1  0  0  0  0
 17 18  1  0  0  0  0
 17 16  2  0  0  0  0
 18 19  2  0  0  0  0
 19 20  1  0  0  0  0
 20 23  1  0  0  0  0
 21 20  2  0  0  0  0
 21 22  1  0  0  0  0
 25 18  1  0  0  0  0
 26 17  1  0  0  0  0
 27  2  1  0  0  0  0
 27 28  1  0  0  0  0
 29 27  2  0  0  0  0
 30 31  1  0  0  0  0
M  END
>  <target>  (14)
-1.19

$$$$
-55.99703661
 OpenBabel07082014033D

 31 32  0  0  0  0  0  0  0  0999 V2000
   -2.4045   -0.6384   -0.0449 C   0  0  0  0  0  0  0  0  0  0  0  0
   -1.0066   -0.7421    0.0331 C   0  0  0  0  0  0  0  0  0  0  0  0
   -0.2474    0.4317   -0.0039 C   0  0  0  0  0  0  0  0  0  0  0  0
   -0.9075    1.6472   -0.0436 C   0  0  0  0  0  3  0  0  0  0  0  0
   -2.2442    1.7303   -0.0578 N   0  0  0  0  0  0  0  0  0  0  0  0
   -3.0157    0.6334   -0.0732 C   0  0  0  0  0  0  0  0  0  0  0  0
   -4.4949    0.7568   -0.1197 C   0  0  0  0  0  0  0  0  0  0  0  0
   -4.8134    1.2870   -1.0159 H   0  0  0  0  0  0  0  0  0  0  0  0
   -4.9300   -0.2383   -0.1276 H   0  0  0  0  0  0  0  0  0  0  0  0
   -4.8695    1.2980    0.7478 H   0  0  0  0  0  0  0  0  0  0  0  0
   -2.8692    3.0353   -0.0752 C   0  0  0  0  0  0  0  0  0  0  0  0
   -2.1070    3.8098   -0.0570 H   0  0  0  0  0  0  0  0  0  0  0  0
   -3.4735    3.1504   -0.9753 H   0  0  0  0  0  0  0  0  0  0  0  0
   -3.5168    3.1513    0.7941 H   0  0  0  0  0  0  0  0  0  0  0  0
   -0.3468    2.5681   -0.0708 H   0  0  0  0  0  0  0  0  0  0  0  0
    1.2251    0.4163   -0.0350 C   0  0  0  0  0  0  0  0  0  0  0  0
    1.9560    1.1533    0.8912 C   0  0  0  0  0  0  0  0  0  0  0  0
    3.3386    1.1467    0.8591 C   0  0  0  0  0  0  0  0  0  0  0  0
    3.9708    0.4056   -0.1198 C   0  0  0  0  0  0  0  0  0  0  0  0
    3.2715   -0.3193   -1.0668 C   0  0  0  0  0  0  0  0  0  0  0  0
    1.8913   -0.3101   -1.0175 C   0  0  0  0  0  0  0  0  0  0  0  0
    1.3252   -0.8762   -1.7417 H   0  0  0  0  0  0  0  0  0  0  0  0
    3.8040   -0.8833   -1.8155 H   0  0  0  0  0  0  0  0  0  0  0  0
    5.3305    0.3916   -0.1570 F   0  0  0  0  0  0  0  0  0  0  0  0
    3.9228    1.6961    1.5793 H   0  0  0  0  0  0  0  0  0  0  0  0
    1.4448    1.7071    1.6624 H   0  0  0  0  0  0  0  0  0  0  0  0
   -0.3910   -2.1277    0.2872 C   0  0  0  0  0  0  0  0  0  0  0  0
    0.6905   -2.1724    0.8833 O   0  0  0  0  0  1  0  0  0  0  0  0
   -1.0903   -3.1079   -0.0867 O   0  0  0  0  0  0  0  0  0  0  0  0
   -3.1872   -1.7122   -0.0907 O   0  0  0  0  0  0  0  0  0  0  0  0
   -2.5618   -2.5067   -0.1207 H   0  0  0  0  0  0  0  0  0  0  0  0
  1  2  1  0  0  0  0
  2 27  1  0  0  0  0
  3  2  2  0  0  0  0
  4  3  1  0  0  0  0
  5  4  1  0  0  0  0
  6  5  1  0  0  0  0
  6  1  2  0  0  0  0
  7  6  1  0  0  0  0
  7 10  1  0  0  0  0
  8  7  1  0  0  0  0
  9  7  1  0  0  0  0
 11  5  1  0  0  0  0
 11 12  1  0  0  0  0
 11 14  1  0  0  0  0
 13 11  1  0  0  0  0
 15  4  1  0  0  0  0
 16  3  1  0  0  0  0
 16 17  1  0  0  0  0
 17 26  1  0  0  0  0
 18 17  2  0  0  0  0
 18 25  1  0  0  0  0
 19 18  1  0  0  0  0
 20 21  1  0  0  0  0
 20 19  2  0  0  0  0
 21 16  2  0  0  0  0
 22 21  1  0  0  0  0
 23 20  1  0  0  0  0
 24 19  1  0  0  0  0
 27 28  1  0  0  0  0
 29 27  2  0  0  0  0
 30  1  1  0  0  0  0
 31 30  1  0  0  0  0
M  END
>  <target>  (15)
-1.2

$$$$
-67.61854751
 OpenBabel07082014033D

 34 35  0  0  0  0  0  0  0  0999 V2000
   -3.4154   -0.5936    0.0545 C   0  0  0  0  0  0  0  0  0  0  0  0
   -2.0215   -0.7388   -0.0335 C   0  0  0  0  0  0  0  0  0  0  0  0
   -1.2292    0.4124   -0.0136 C   0  0  0  0  0  0  0  0  0  0  0  0
   -1.8490    1.6479    0.0293 C   0  0  0  0  0  3  0  0  0  0  0  0
   -3.1827    1.7705    0.0652 N   0  0  0  0  0  0  0  0  0  0  0  0
   -3.9864    0.6976    0.0911 C   0  0  0  0  0  0  0  0  0  0  0  0
   -5.4600    0.8656    0.1570 C   0  0  0  0  0  0  0  0  0  0  0  0
   -5.9253   -0.1158    0.1743 H   0  0  0  0  0  0  0  0  0  0  0  0
   -5.7505    1.4086    1.0551 H   0  0  0  0  0  0  0  0  0  0  0  0
   -5.8300    1.4151   -0.7072 H   0  0  0  0  0  0  0  0  0  0  0  0
   -3.7674    3.0937    0.0911 C   0  0  0  0  0  0  0  0  0  0  0  0
   -4.4257    3.2286   -0.7673 H   0  0  0  0  0  0  0  0  0  0  0  0
   -2.9830    3.8453    0.0597 H   0  0  0  0  0  0  0  0  0  0  0  0
   -4.3531    3.2276    1.0010 H   0  0  0  0  0  0  0  0  0  0  0  0
   -1.2602    2.5513    0.0421 H   0  0  0  0  0  0  0  0  0  0  0  0
    0.2444    0.3516   -0.0094 C   0  0  0  0  0  0  0  0  0  0  0  0
    0.9097   -0.3002    1.0252 C   0  0  0  0  0  0  0  0  0  0  0  0
    2.2880   -0.3486    1.0427 C   0  0  0  0  0  0  0  0  0  0  0  0
    3.0087    0.2645    0.0228 C   0  0  0  0  0  0  0  0  0  0  0  0
    2.3576    0.9336   -1.0032 C   0  0  0  0  0  0  0  0  0  0  0  0
    0.9757    0.9820   -1.0099 C   0  0  0  0  0  0  0  0  0  0  0  0
    0.4644    1.4838   -1.8156 H   0  0  0  0  0  0  0  0  0  0  0  0
    2.9266    1.4060   -1.7883 H   0  0  0  0  0  0  0  0  0  0  0  0
    4.5022    0.1796    0.0640 C   0  0  0  0  0  0  0  0  0  0  0  0
    5.1114    0.7488   -0.9882 F   0  0  0  0  0  0  0  0  0  0  0  0
    4.9555   -1.0920    0.1108 F   0  0  0  0  0  0  0  0  0  0  0  0
    5.0272    0.7806    1.1571 F   0  0  0  0  0  0  0  0  0  0  0  0
    2.8102   -0.8635    1.8344 H   0  0  0  0  0  0  0  0  0  0  0  0
    0.3444   -0.7816    1.8080 H   0  0  0  0  0  0  0  0  0  0  0  0
   -1.4357   -2.1409   -0.2675 C   0  0  0  0  0  0  0  0  0  0  0  0
   -0.3213   -2.2130   -0.7965 O   0  0  0  0  0  0  0  0  0  0  0  0
   -2.1824   -3.1023    0.0594 O   0  0  0  0  0  1  0  0  0  0  0  0
   -4.2289   -1.6416    0.1034 O   0  0  0  0  0  0  0  0  0  0  0  0
   -3.6265   -2.4566    0.1155 H   0  0  0  0  0  0  0  0  0  0  0  0
  1  6  2  0  0  0  0
  1 33  1  0  0  0  0
  2  3  2  0  0  0  0
  2  1  1  0  0  0  0
  3 16  1  0  0  0  0
  3  4  1  0  0  0  0
  4 15  1  0  0  0  0
  4  5  1  0  0  0  0
  5  6  1  0  0  0  0
  5 11  1  0  0  0  0
  6  7  1  0  0  0  0
  7  8  1  0  0  0  0
  7  9  1  0  0  0  0
 10  7  1  0  0  0  0
 11 14  1  0  0  0  0
 12 11  1  0  0  0  0
 13 11  1  0  0  0  0
 16 17  1  0  0  0  0
 17 18  2  0  0  0  0
 17 29  1  0  0  0  0
 18 28  1  0  0  0  0
 19 24  1  0  0  0  0
 19 18  1  0  0  0  0
 20 19  2  0  0  0  0
 21 20  1  0  0  0  0
 21 16  2  0  0  0  0
 22 21  1  0  0  0  0
 23 20  1  0  0  0  0
 24 26  1  0  0  0  0
 24 27  1  0  0  0  0
 25 24  1  0  0  0  0
 30  2  1  0  0  0  0
 30 32  1  0  0  0  0
 31 30  2  0  0  0  0
 33 34  1  0  0  0  0
M  END
>  <target>  (16)
-1.16

$$$$
-56.29303428
 OpenBabel07082014033D

 32 33  0  0  0  0  0  0  0  0999 V2000
   -2.6205   -0.6262   -0.0434 C   0  0  0  0  0  0  0  0  0  0  0  0
   -1.2234   -0.7400    0.0302 C   0  0  0  0  0  0  0  0  0  0  0  0
   -0.4563    0.4282   -0.0034 C   0  0  0  0  0  0  0  0  0  0  0  0
   -1.1045    1.6493   -0.0434 C   0  0  0  0  0  3  0  0  0  0  0  0
   -2.4409    1.7422   -0.0626 N   0  0  0  0  0  0  0  0  0  0  0  0
   -3.2209    0.6515   -0.0757 C   0  0  0  0  0  0  0  0  0  0  0  0
   -4.6987    0.7862   -0.1226 C   0  0  0  0  0  0  0  0  0  0  0  0
   -5.1417   -0.2055   -0.1338 H   0  0  0  0  0  0  0  0  0  0  0  0
   -5.0131    1.3226   -1.0166 H   0  0  0  0  0  0  0  0  0  0  0  0
   -5.0694    1.3271    0.7468 H   0  0  0  0  0  0  0  0  0  0  0  0
   -3.0557    3.0520   -0.0843 C   0  0  0  0  0  0  0  0  0  0  0  0
   -2.2880    3.8211   -0.0638 H   0  0  0  0  0  0  0  0  0  0  0  0
   -3.7066    3.1741    0.7817 H   0  0  0  0  0  0  0  0  0  0  0  0
   -3.6551    3.1704   -0.9873 H   0  0  0  0  0  0  0  0  0  0  0  0
   -0.5370    2.5662   -0.0668 H   0  0  0  0  0  0  0  0  0  0  0  0
    1.0168    0.3978   -0.0251 C   0  0  0  0  0  0  0  0  0  0  0  0
    1.6837   -0.2644   -1.0531 C   0  0  0  0  0  0  0  0  0  0  0  0
    3.0611   -0.2876   -1.0891 C   0  0  0  0  0  0  0  0  0  0  0  0
    3.7898    0.3619   -0.0897 C   0  0  0  0  0  0  0  0  0  0  0  0
    3.1270    1.0424    0.9326 C   0  0  0  0  0  0  0  0  0  0  0  0
    1.7475    1.0645    0.9547 C   0  0  0  0  0  0  0  0  0  0  0  0
    1.2324    1.5720    1.7552 H   0  0  0  0  0  0  0  0  0  0  0  0
    3.6986    1.5410    1.7003 H   0  0  0  0  0  0  0  0  0  0  0  0
    5.1991    0.3248   -0.1139 C   0  0  0  0  0  0  0  0  0  0  0  0
    6.3473    0.2992   -0.1349 N   0  0  0  0  0  0  0  0  0  0  0  0
    3.5813   -0.8094   -1.8781 H   0  0  0  0  0  0  0  0  0  0  0  0
    1.1156   -0.7734   -1.8175 H   0  0  0  0  0  0  0  0  0  0  0  0
   -0.6057   -2.1272    0.2676 C   0  0  0  0  0  0  0  0  0  0  0  0
   -1.3281   -3.1065   -0.0604 O   0  0  0  0  0  0  0  0  0  0  0  0
    0.5080   -2.1720    0.8019 O   0  0  0  0  0  1  0  0  0  0  0  0
   -3.4113   -1.6929   -0.0812 O   0  0  0  0  0  0  0  0  0  0  0  0
   -2.7925   -2.4939   -0.1002 H   0  0  0  0  0  0  0  0  0  0  0  0
  1  2  1  0  0  0  0
  2 28  1  0  0  0  0
  3  2  2  0  0  0  0
  4  3  1  0  0  0  0
  5  4  1  0  0  0  0
  6  5  1  0  0  0  0
  6  1  2  0  0  0  0
  7  6  1  0  0  0  0
  7 10  1  0  0  0  0
  8  7  1  0  0  0  0
  9  7  1  0  0  0  0
 11 12  1  0  0  0  0
 11  5  1  0  0  0  0
 11 13  1  0  0  0  0
 14 11  1  0  0  0  0
 15  4  1  0  0  0  0
 16  3  1  0  0  0  0
 16 21  1  0  0  0  0
 17 16  2  0  0  0  0
 18 17  1  0  0  0  0
 18 19  2  0  0  0  0
 19 20  1  0  0  0  0
 20 21  2  0  0  0  0
 20 23  1  0  0  0  0
 21 22  1  0  0  0  0
 24 19  1  0  0  0  0
 25 24  3  0  0  0  0
 26 18  1  0  0  0  0
 27 17  1  0  0  0  0
 28 30  1  0  0  0  0
 29 28  2  0  0  0  0
 31  1  1  0  0  0  0
 32 31  1  0  0  0  0
M  END
>  <target>  (17)
-1.17

$$$$
-62.23408030
 OpenBabel07082014033D

 33 34  0  0  0  0  0  0  0  0999 V2000
   -3.0058   -0.6215   -0.0121 C   0  0  0  0  0  0  0  0  0  0  0  0
   -1.6084   -0.7456    0.0316 C   0  0  0  0  0  0  0  0  0  0  0  0
   -0.8316    0.4144   -0.0061 C   0  0  0  0  0  0  0  0  0  0  0  0
   -1.4646    1.6419   -0.0506 C   0  0  0  0  0  3  0  0  0  0  0  0
   -2.8011    1.7459   -0.0687 N   0  0  0  0  0  0  0  0  0  0  0  0
   -3.5922    0.6641   -0.0570 C   0  0  0  0  0  0  0  0  0  0  0  0
   -5.0685    0.8127   -0.0887 C   0  0  0  0  0  0  0  0  0  0  0  0
   -5.5220   -0.1743   -0.0738 H   0  0  0  0  0  0  0  0  0  0  0  0
   -5.4232    1.3760    0.7732 H   0  0  0  0  0  0  0  0  0  0  0  0
   -5.3890    1.3336   -0.9897 H   0  0  0  0  0  0  0  0  0  0  0  0
   -3.4025    3.0612   -0.1098 C   0  0  0  0  0  0  0  0  0  0  0  0
   -2.6274    3.8230   -0.1126 H   0  0  0  0  0  0  0  0  0  0  0  0
   -4.0435    3.2080    0.7599 H   0  0  0  0  0  0  0  0  0  0  0  0
   -4.0104    3.1679   -1.0087 H   0  0  0  0  0  0  0  0  0  0  0  0
   -0.8883    2.5530   -0.0766 H   0  0  0  0  0  0  0  0  0  0  0  0
    0.6451    0.3632   -0.0136 C   0  0  0  0  0  0  0  0  0  0  0  0
    1.3628    0.7275    1.1247 C   0  0  0  0  0  0  0  0  0  0  0  0
    2.7403    0.6899    1.1168 C   0  0  0  0  0  0  0  0  0  0  0  0
    3.4053    0.3109   -0.0474 C   0  0  0  0  0  0  0  0  0  0  0  0
    2.6977   -0.0146   -1.2039 C   0  0  0  0  0  0  0  0  0  0  0  0
    1.3217    0.0207   -1.1847 C   0  0  0  0  0  0  0  0  0  0  0  0
    0.7626   -0.2428   -2.0685 H   0  0  0  0  0  0  0  0  0  0  0  0
    3.2406   -0.2970   -2.0923 H   0  0  0  0  0  0  0  0  0  0  0  0
    4.8253    0.2434   -0.0535 N   0  0  0  0  0  0  0  0  0  0  0  0
    5.4264    0.5163    0.9748 O   0  0  0  0  0  0  0  0  0  0  0  0
    5.3894   -0.0891   -1.0853 O   0  0  0  0  0  0  0  0  0  0  0  0
    3.3156    0.9434    1.9935 H   0  0  0  0  0  0  0  0  0  0  0  0
    0.8372    1.0060    2.0239 H   0  0  0  0  0  0  0  0  0  0  0  0
   -0.9673   -2.1312    0.1901 C   0  0  0  0  0  0  0  0  0  0  0  0
    0.2389   -2.1714    0.4592 O   0  0  0  0  0  1  0  0  0  0  0  0
   -1.7449   -3.1130    0.0563 O   0  0  0  0  0  0  0  0  0  0  0  0
   -3.8054   -1.6783   -0.0103 O   0  0  0  0  0  0  0  0  0  0  0  0
   -3.1910   -2.4872    0.0060 H   0  0  0  0  0  0  0  0  0  0  0  0
  1 32  1  0  0  0  0
  1  2  1  0  0  0  0
  2 29  1  0  0  0  0
  3  2  2  0  0  0  0
  4  3  1  0  0  0  0
  5  6  1  0  0  0  0
  5  4  1  0  0  0  0
  6  1  2  0  0  0  0
  7  8  1  0  0  0  0
  7  6  1  0  0  0  0
  7  9  1  0  0  0  0
 10  7  1  0  0  0  0
 11  5  1  0  0  0  0
 11 13  1  0  0  0  0
 12 11  1  0  0  0  0
 14 11  1  0  0  0  0
 15  4  1  0  0  0  0
 16  3  1  0  0  0  0
 16 17  1  0  0  0  0
 17 28  1  0  0  0  0
 18 17  2  0  0  0  0
 18 27  1  0  0  0  0
 19 18  1  0  0  0  0
 20 21  1  0  0  0  0
 20 19  2  0  0  0  0
 21 16  2  0  0  0  0
 22 21  1  0  0  0  0
 23 20  1  0  0  0  0
 24 19  1  0  0  0  0
 24 25  2  0  0  0  0
 26 24  2  0  0  0  0
 29 30  1  0  0  0  0
 31 29  2  0  0  0  0
 32 33  1  0  0  0  0
M  END
>  <target>  (18)
-0.44

$$$$
-61.87416989
 OpenBabel07082014033D

 33 34  0  0  0  0  0  0  0  0999 V2000
   -2.9656   -0.6173   -0.0471 C   0  0  0  0  0  0  0  0  0  0  0  0
   -1.5711   -0.7258    0.0656 C   0  0  0  0  0  0  0  0  0  0  0  0
   -0.8000    0.4393    0.0005 C   0  0  0  0  0  0  0  0  0  0  0  0
   -1.4538    1.6571   -0.0844 C   0  0  0  0  0  3  0  0  0  0  0  0
   -2.7896    1.7474   -0.1166 N   0  0  0  0  0  0  0  0  0  0  0  0
   -3.5688    0.6546   -0.1178 C   0  0  0  0  0  0  0  0  0  0  0  0
   -5.0470    0.7867   -0.1924 C   0  0  0  0  0  0  0  0  0  0  0  0
   -5.4313    1.3474    0.6580 H   0  0  0  0  0  0  0  0  0  0  0  0
   -5.4858   -0.2067   -0.1870 H   0  0  0  0  0  0  0  0  0  0  0  0
   -5.3456    1.2999   -1.1049 H   0  0  0  0  0  0  0  0  0  0  0  0
   -3.4077    3.0550   -0.1754 C   0  0  0  0  0  0  0  0  0  0  0  0
   -2.6403    3.8245   -0.1632 H   0  0  0  0  0  0  0  0  0  0  0  0
   -4.0672    3.1938    0.6813 H   0  0  0  0  0  0  0  0  0  0  0  0
   -3.9953    3.1506   -1.0887 H   0  0  0  0  0  0  0  0  0  0  0  0
   -0.8843    2.5714   -0.1328 H   0  0  0  0  0  0  0  0  0  0  0  0
    0.6685    0.3993   -0.0264 C   0  0  0  0  0  0  0  0  0  0  0  0
    1.4230    1.2156    0.8116 C   0  0  0  0  0  0  0  0  0  0  0  0
    2.8024    1.1589    0.7775 C   0  0  0  0  0  0  0  0  0  0  0  0
    3.4530    0.3052   -0.1037 C   0  0  0  0  0  0  0  0  0  0  0  0
    2.6977   -0.4890   -0.9576 C   0  0  0  0  0  0  0  0  0  0  0  0
    1.3196   -0.4467   -0.9202 C   0  0  0  0  0  0  0  0  0  0  0  0
    0.7403   -1.0774   -1.5813 H   0  0  0  0  0  0  0  0  0  0  0  0
    3.2198   -1.1457   -1.6403 H   0  0  0  0  0  0  0  0  0  0  0  0
    4.9781    0.2197   -0.1208 C   0  0  0  0  0  0  0  0  0  0  0  0
    5.4985   -0.4977   -1.0058 O   0  0  0  0  0  0  0  0  0  0  0  0
    5.5932    0.8709    0.7541 O   0  0  0  0  0  1  0  0  0  0  0  0
    3.4080    1.7644    1.4373 H   0  0  0  0  0  0  0  0  0  0  0  0
    0.9294    1.8629    1.5211 H   0  0  0  0  0  0  0  0  0  0  0  0
   -0.9841   -2.1062    0.3933 C   0  0  0  0  0  0  0  0  0  0  0  0
   -1.6347   -3.0885   -0.0558 O   0  0  0  0  0  0  0  0  0  0  0  0
    0.0105   -2.1449    1.1275 O   0  0  0  0  0  1  0  0  0  0  0  0
   -3.7526   -1.6915   -0.0871 O   0  0  0  0  0  0  0  0  0  0  0  0
   -3.1351   -2.4858   -0.1071 H   0  0  0  0  0  0  0  0  0  0  0  0
  1  2  1  0  0  0  0
  2 29  1  0  0  0  0
  3  2  2  0  0  0  0
  4  3  1  0  0  0  0
  5  4  1  0  0  0  0
  6  5  1  0  0  0  0
  6  1  2  0  0  0  0
  7  9  1  0  0  0  0
  7  6  1  0  0  0  0
  7  8  1  0  0  0  0
 10  7  1  0  0  0  0
 11 12  1  0  0  0  0
 11  5  1  0  0  0  0
 11 13  1  0  0  0  0
 14 11  1  0  0  0  0
 15  4  1  0  0  0  0
 16  3  1  0  0  0  0
 16 17  1  0  0  0  0
 17 28  1  0  0  0  0
 18 17  2  0  0  0  0
 18 27  1  0  0  0  0
 19 18  1  0  0  0  0
 20 21  1  0  0  0  0
 20 19  2  0  0  0  0
 21 16  2  0  0  0  0
 22 21  1  0  0  0  0
 23 20  1  0  0  0  0
 24 19  1  0  0  0  0
 24 26  1  0  0  0  0
 25 24  2  0  0  0  0
 29 31  1  0  0  0  0
 30 29  2  0  0  0  0
 32  1  1  0  0  0  0
 33 32  1  0  0  0  0
M  END
>  <target>  (19)
-1.21

$$$$
-65.22596229
 OpenBabel07082014033D

 37 38  0  0  0  0  0  0  0  0999 V2000
   -3.3475   -0.5495   -0.0136 C   0  0  0  0  0  0  0  0  0  0  0  0
   -1.9557   -0.7235   -0.0733 C   0  0  0  0  0  0  0  0  0  0  0  0
   -1.1368    0.4048    0.0309 C   0  0  0  0  0  0  0  0  0  0  0  0
   -1.7315    1.6511    0.1175 C   0  0  0  0  0  3  0  0  0  0  0  0
   -3.0622    1.8044    0.1164 N   0  0  0  0  0  0  0  0  0  0  0  0
   -3.8907    0.7509    0.0672 C   0  0  0  0  0  0  0  0  0  0  0  0
   -5.3618    0.9513    0.0970 C   0  0  0  0  0  0  0  0  0  0  0  0
   -5.8491   -0.0185    0.0535 H   0  0  0  0  0  0  0  0  0  0  0  0
   -5.6675    1.4580    1.0111 H   0  0  0  0  0  0  0  0  0  0  0  0
   -5.6922    1.5495   -0.7508 H   0  0  0  0  0  0  0  0  0  0  0  0
   -3.6175    3.1387    0.1865 C   0  0  0  0  0  0  0  0  0  0  0  0
   -4.2435    3.3293   -0.6855 H   0  0  0  0  0  0  0  0  0  0  0  0
   -4.2299    3.2440    1.0824 H   0  0  0  0  0  0  0  0  0  0  0  0
   -2.8152    3.8713    0.2159 H   0  0  0  0  0  0  0  0  0  0  0  0
   -1.1234    2.5383    0.1961 H   0  0  0  0  0  0  0  0  0  0  0  0
    0.3318    0.3084    0.0850 C   0  0  0  0  0  0  0  0  0  0  0  0
    0.9421   -0.4701    1.0652 C   0  0  0  0  0  0  0  0  0  0  0  0
    2.3164   -0.5492    1.1287 C   0  0  0  0  0  0  0  0  0  0  0  0
    3.1040    0.1532    0.2171 C   0  0  0  0  0  0  0  0  0  0  0  0
    2.4956    0.9471   -0.7525 C   0  0  0  0  0  0  0  0  0  0  0  0
    1.1188    1.0287   -0.8099 C   0  0  0  0  0  0  0  0  0  0  0  0
    0.6476    1.6256   -1.5751 H   0  0  0  0  0  0  0  0  0  0  0  0
    3.1072    1.4893   -1.4553 H   0  0  0  0  0  0  0  0  0  0  0  0
    4.5736    0.0168    0.3011 C   0  0  0  0  0  0  0  0  0  0  0  0
    5.1526   -0.6614    1.1283 O   0  0  0  0  0  0  0  0  0  0  0  0
    5.2145    0.7199   -0.6333 O   0  0  0  0  0  0  0  0  0  0  0  0
    6.6386    0.6459   -0.6371 C   0  0  0  0  0  0  0  0  0  0  0  0
    7.0356    0.9879    0.3203 H   0  0  0  0  0  0  0  0  0  0  0  0
    6.9646    1.2917   -1.4473 H   0  0  0  0  0  0  0  0  0  0  0  0
    6.9616   -0.3830   -0.8050 H   0  0  0  0  0  0  0  0  0  0  0  0
    2.8041   -1.1581    1.8749 H   0  0  0  0  0  0  0  0  0  0  0  0
    0.3337   -1.0215    1.7668 H   0  0  0  0  0  0  0  0  0  0  0  0
   -1.4035   -2.1246   -0.3794 C   0  0  0  0  0  0  0  0  0  0  0  0
   -0.3037   -2.1950   -0.9386 O   0  0  0  0  0  0  0  0  0  0  0  0
   -2.1652   -3.0843   -0.0823 O   0  0  0  0  0  1  0  0  0  0  0  0
   -4.1854   -1.5807   -0.0343 O   0  0  0  0  0  0  0  0  0  0  0  0
   -3.6024   -2.4080   -0.0381 H   0  0  0  0  0  0  0  0  0  0  0  0
  1  6  2  0  0  0  0
  2  1  1  0  0  0  0
  2  3  2  0  0  0  0
  3 16  1  0  0  0  0
  3  4  1  0  0  0  0
  4 15  1  0  0  0  0
  5  4  1  0  0  0  0
  5 11  1  0  0  0  0
  6  7  1  0  0  0  0
  6  5  1  0  0  0  0
  7  9  1  0  0  0  0
  8  7  1  0  0  0  0
 10  7  1  0  0  0  0
 11 14  1  0  0  0  0
 11 13  1  0  0  0  0
 12 11  1  0  0  0  0
 16 17  1  0  0  0  0
 17 18  2  0  0  0  0
 17 32  1  0  0  0  0
 18 31  1  0  0  0  0
 19 24  1  0  0  0  0
 19 18  1  0  0  0  0
 20 19  2  0  0  0  0
 21 20  1  0  0  0  0
 21 16  2  0  0  0  0
 22 21  1  0  0  0  0
 23 20  1  0  0  0  0
 24 25  2  0  0  0  0
 26 24  1  0  0  0  0
 27 26  1  0  0  0  0
 27 28  1  0  0  0  0
 29 27  1  0  0  0  0
 30 27  1  0  0  0  0
 33 35  1  0  0  0  0
 33  2  1  0  0  0  0
 34 33  2  0  0  0  0
 36  1  1  0  0  0  0
 37 36  1  0  0  0  0
M  END
>  <target>  (20)
-1.23

$$$$
-68.39449788
 OpenBabel07082014033D

 40 41  0  0  0  0  0  0  0  0999 V2000
    3.6955    0.4539    0.0009 C   0  0  0  0  0  0  0  0  0  0  0  0
    2.3140    0.6931   -0.0665 C   0  0  0  0  0  0  0  0  0  0  0  0
    1.4423   -0.3963    0.0226 C   0  0  0  0  0  0  0  0  0  0  0  0
    1.9774   -1.6698    0.1016 C   0  0  0  0  0  3  0  0  0  0  0  0
    3.2995   -1.8851    0.1077 N   0  0  0  0  0  0  0  0  0  0  0  0
    4.1767   -0.8711    0.0736 C   0  0  0  0  0  0  0  0  0  0  0  0
    5.6366   -1.1403    0.1104 C   0  0  0  0  0  0  0  0  0  0  0  0
    5.9443   -1.7425   -0.7431 H   0  0  0  0  0  0  0  0  0  0  0  0
    6.1689   -0.1939    0.0821 H   0  0  0  0  0  0  0  0  0  0  0  0
    5.9122   -1.6722    1.0197 H   0  0  0  0  0  0  0  0  0  0  0  0
    3.7914   -3.2445    0.1714 C   0  0  0  0  0  0  0  0  0  0  0  0
    4.4193   -3.4562   -0.6943 H   0  0  0  0  0  0  0  0  0  0  0  0
    4.3864   -3.3865    1.0739 H   0  0  0  0  0  0  0  0  0  0  0  0
    2.9558   -3.9392    0.1836 H   0  0  0  0  0  0  0  0  0  0  0  0
    1.3278   -2.5280    0.1688 H   0  0  0  0  0  0  0  0  0  0  0  0
   -0.0201   -0.2293    0.0704 C   0  0  0  0  0  0  0  0  0  0  0  0
   -0.5956    0.5700    1.0548 C   0  0  0  0  0  0  0  0  0  0  0  0
   -1.9646    0.7164    1.1132 C   0  0  0  0  0  0  0  0  0  0  0  0
   -2.7818    0.0634    0.1914 C   0  0  0  0  0  0  0  0  0  0  0  0
   -2.2089   -0.7511   -0.7824 C   0  0  0  0  0  0  0  0  0  0  0  0
   -0.8376   -0.9017   -0.8342 C   0  0  0  0  0  0  0  0  0  0  0  0
   -0.3933   -1.5153   -1.6024 H   0  0  0  0  0  0  0  0  0  0  0  0
   -2.8435   -1.2554   -1.4931 H   0  0  0  0  0  0  0  0  0  0  0  0
   -4.2449    0.2708    0.2728 C   0  0  0  0  0  0  0  0  0  0  0  0
   -4.7862    0.9593    1.1172 O   0  0  0  0  0  0  0  0  0  0  0  0
   -4.9068   -0.3689   -0.6891 O   0  0  0  0  0  0  0  0  0  0  0  0
   -6.3370   -0.2663   -0.7107 C   0  0  0  0  0  0  0  0  0  0  0  0
   -6.9769   -1.3445    0.1518 C   0  0  0  0  0  0  0  0  0  0  0  0
   -6.6970   -1.2025    1.1932 H   0  0  0  0  0  0  0  0  0  0  0  0
   -6.6476   -2.3278   -0.1731 H   0  0  0  0  0  0  0  0  0  0  0  0
   -8.0569   -1.2802    0.0651 H   0  0  0  0  0  0  0  0  0  0  0  0
   -6.6253    0.7297   -0.3597 H   0  0  0  0  0  0  0  0  0  0  0  0
   -6.6078   -0.3873   -1.7609 H   0  0  0  0  0  0  0  0  0  0  0  0
   -2.4249    1.3421    1.8632 H   0  0  0  0  0  0  0  0  0  0  0  0
    0.0361    1.0847    1.7636 H   0  0  0  0  0  0  0  0  0  0  0  0
    1.8303    2.1209   -0.3653 C   0  0  0  0  0  0  0  0  0  0  0  0
    2.6314    3.0415   -0.0496 O   0  0  0  0  0  1  0  0  0  0  0  0
    0.7420    2.2465   -0.9374 O   0  0  0  0  0  0  0  0  0  0  0  0
    4.5809    1.4451   -0.0043 O   0  0  0  0  0  0  0  0  0  0  0  0
    4.0383    2.2989   -0.0025 H   0  0  0  0  0  0  0  0  0  0  0  0
  1  6  2  0  0  0  0
  2  1  1  0  0  0  0
  2  3  2  0  0  0  0
  3 16  1  0  0  0  0
  3  4  1  0  0  0  0
  4  5  1  0  0  0  0
  4 15  1  0  0  0  0
  5 11  1  0  0  0  0
  6  5  1  0  0  0  0
  6  7  1  0  0  0  0
  7 10  1  0  0  0  0
  8  7  1  0  0  0  0
  9  7  1  0  0  0  0
 11 14  1  0  0  0  0
 11 13  1  0  0  0  0
 12 11  1  0  0  0  0
 16 17  1  0  0  0  0
 17 18  2  0  0  0  0
 17 35  1  0  0  0  0
 18 34  1  0  0  0  0
 19 24  1  0  0  0  0
 19 18  1  0  0  0  0
 20 19  2  0  0  0  0
 21 20  1  0  0  0  0
 21 16  2  0  0  0  0
 22 21  1  0  0  0  0
 23 20  1  0  0  0  0
 24 25  2  0  0  0  0
 26 24  1  0  0  0  0
 27 26  1  0  0  0  0
 27 32  1  0  0  0  0
 27 28  1  0  0  0  0
 28 29  1  0  0  0  0
 30 28  1  0  0  0  0
 31 28  1  0  0  0  0
 33 27  1  0  0  0  0
 36  2  1  0  0  0  0
 36 37  1  0  0  0  0
 38 36  2  0  0  0  0
 39 40  1  0  0  0  0
 39  1  1  0  0  0  0
M  END
>  <target>  (21)
-1.23

$$$$
-61.13928521
 OpenBabel07082014033D

 36 37  0  0  0  0  0  0  0  0999 V2000
   -2.9712   -0.6004   -0.0299 C   0  0  0  0  0  0  0  0  0  0  0  0
   -1.5771   -0.7346    0.0628 C   0  0  0  0  0  0  0  0  0  0  0  0
   -0.7888    0.4180   -0.0078 C   0  0  0  0  0  0  0  0  0  0  0  0
   -1.4179    1.6474   -0.0943 C   0  0  0  0  0  3  0  0  0  0  0  0
   -2.7522    1.7620   -0.1229 N   0  0  0  0  0  0  0  0  0  0  0  0
   -3.5505    0.6843   -0.1069 C   0  0  0  0  0  0  0  0  0  0  0  0
   -5.0258    0.8423   -0.1680 C   0  0  0  0  0  0  0  0  0  0  0  0
   -5.3921    1.4219    0.6779 H   0  0  0  0  0  0  0  0  0  0  0  0
   -5.3259    1.3492   -1.0839 H   0  0  0  0  0  0  0  0  0  0  0  0
   -5.4854   -0.1416   -0.1451 H   0  0  0  0  0  0  0  0  0  0  0  0
   -3.3448    3.0805   -0.1894 C   0  0  0  0  0  0  0  0  0  0  0  0
   -3.9921    3.2431    0.6726 H   0  0  0  0  0  0  0  0  0  0  0  0
   -3.9434    3.1780   -1.0954 H   0  0  0  0  0  0  0  0  0  0  0  0
   -2.5638    3.8363   -0.1961 H   0  0  0  0  0  0  0  0  0  0  0  0
   -0.8351    2.5531   -0.1488 H   0  0  0  0  0  0  0  0  0  0  0  0
    0.6819    0.3640   -0.0291 C   0  0  0  0  0  0  0  0  0  0  0  0
    1.4306    1.1081    0.8785 C   0  0  0  0  0  0  0  0  0  0  0  0
    2.8103    1.0682    0.8519 C   0  0  0  0  0  0  0  0  0  0  0  0
    3.4733    0.2937   -0.0999 C   0  0  0  0  0  0  0  0  0  0  0  0
    2.7149   -0.4310   -1.0231 C   0  0  0  0  0  0  0  0  0  0  0  0
    1.3385   -0.3978   -0.9920 C   0  0  0  0  0  0  0  0  0  0  0  0
    0.7641   -0.9704   -1.7057 H   0  0  0  0  0  0  0  0  0  0  0  0
    3.2345   -1.0271   -1.7590 H   0  0  0  0  0  0  0  0  0  0  0  0
    4.9495    0.1876   -0.1747 C   0  0  0  0  0  0  0  0  0  0  0  0
    5.4929   -0.4569   -1.0575 O   0  0  0  0  0  0  0  0  0  0  0  0
    5.7501    0.8992    0.8807 C   0  0  0  0  0  0  0  0  0  0  0  0
    6.8075    0.7056    0.7198 H   0  0  0  0  0  0  0  0  0  0  0  0
    5.5666    1.9694    0.8249 H   0  0  0  0  0  0  0  0  0  0  0  0
    5.4610    0.5439    1.8666 H   0  0  0  0  0  0  0  0  0  0  0  0
    3.3640    1.6419    1.5765 H   0  0  0  0  0  0  0  0  0  0  0  0
    0.9259    1.6929    1.6320 H   0  0  0  0  0  0  0  0  0  0  0  0
   -0.9936   -2.1227    0.3694 C   0  0  0  0  0  0  0  0  0  0  0  0
   -1.7138   -3.1004    0.0306 O   0  0  0  0  0  0  0  0  0  0  0  0
    0.0860   -2.1675    0.9693 O   0  0  0  0  0  1  0  0  0  0  0  0
   -3.7787   -1.6565   -0.0441 O   0  0  0  0  0  0  0  0  0  0  0  0
   -3.1725   -2.4659   -0.0393 H   0  0  0  0  0  0  0  0  0  0  0  0
  1  2  1  0  0  0  0
  2 32  1  0  0  0  0
  3  2  2  0  0  0  0
  4  3  1  0  0  0  0
  5  6  1  0  0  0  0
  5  4  1  0  0  0  0
  6  1  2  0  0  0  0
  7 10  1  0  0  0  0
  7  6  1  0  0  0  0
  7  8  1  0  0  0  0
  9  7  1  0  0  0  0
 11  5  1  0  0  0  0
 11 12  1  0  0  0  0
 13 11  1  0  0  0  0
 14 11  1  0  0  0  0
 15  4  1  0  0  0  0
 16  3  1  0  0  0  0
 16 17  1  0  0  0  0
 17 31  1  0  0  0  0
 18 17  2  0  0  0  0
 18 30  1  0  0  0  0
 19 18  1  0  0  0  0
 20 21  1  0  0  0  0
 20 19  2  0  0  0  0
 21 16  2  0  0  0  0
 22 21  1  0  0  0  0
 23 20  1  0  0  0  0
 24 19  1  0  0  0  0
 24 26  1  0  0  0  0
 25 24  2  0  0  0  0
 26 29  1  0  0  0  0
 27 26  1  0  0  0  0
 28 26  1  0  0  0  0
 32 34  1  0  0  0  0
 33 32  2  0  0  0  0
 35 36  1  0  0  0  0
 35  1  1  0  0  0  0
M  END
>  <target>  (22)
-1.24

$$$$
-62.02876457
 OpenBabel07082014033D

 33 33  0  0  0  0  0  0  0  0999 V2000
   -3.3902   -0.5464    0.0587 C   0  0  0  0  0  0  0  0  0  0  0  0
   -1.9986   -0.7306    0.0772 C   0  0  0  0  0  0  0  0  0  0  0  0
   -1.1749    0.3894   -0.0632 C   0  0  0  0  0  0  0  0  0  0  0  0
   -1.7586    1.6393   -0.1585 C   0  0  0  0  0  3  0  0  0  0  0  0
   -3.0884    1.8025   -0.1341 N   0  0  0  0  0  0  0  0  0  0  0  0
   -3.9237    0.7582   -0.0386 C   0  0  0  0  0  0  0  0  0  0  0  0
   -5.3929    0.9705   -0.0334 C   0  0  0  0  0  0  0  0  0  0  0  0
   -5.7199    1.4570   -0.9512 H   0  0  0  0  0  0  0  0  0  0  0  0
   -5.8873    0.0068    0.0482 H   0  0  0  0  0  0  0  0  0  0  0  0
   -5.6947    1.5934    0.8073 H   0  0  0  0  0  0  0  0  0  0  0  0
   -3.6344    3.1392   -0.2258 C   0  0  0  0  0  0  0  0  0  0  0  0
   -4.2685    3.2256   -1.1087 H   0  0  0  0  0  0  0  0  0  0  0  0
   -4.2372    3.3589    0.6557 H   0  0  0  0  0  0  0  0  0  0  0  0
   -2.8279    3.8644   -0.2952 H   0  0  0  0  0  0  0  0  0  0  0  0
   -1.1451    2.5199   -0.2640 H   0  0  0  0  0  0  0  0  0  0  0  0
    0.2935    0.2788   -0.1387 C   0  0  0  0  0  0  0  0  0  0  0  0
    1.0952    0.8976    0.8178 C   0  0  0  0  0  0  0  0  0  0  0  0
    2.4694    0.8092    0.7435 C   0  0  0  0  0  0  0  0  0  0  0  0
    3.0670    0.1138   -0.3098 C   0  0  0  0  0  0  0  0  0  0  0  0
    2.2579   -0.4798   -1.2901 C   0  0  0  0  0  0  0  0  0  0  0  0
    0.8878   -0.3930   -1.2061 C   0  0  0  0  0  0  0  0  0  0  0  0
    0.2682   -0.8608   -1.9558 H   0  0  0  0  0  0  0  0  0  0  0  0
    2.7300   -1.0105   -2.1026 H   0  0  0  0  0  0  0  0  0  0  0  0
    4.5000   -0.0571   -0.4551 C   0  0  0  0  0  3  0  0  0  0  0  0
    5.0887   -0.6312   -1.3249 O   0  0  0  0  0  0  0  0  0  0  0  0
    5.4772    0.6759    0.8384 *   0  0  0  0  0  0  0  0  0  0  0  0
    3.0850    1.2736    1.4966 H   0  0  0  0  0  0  0  0  0  0  0  0
    0.6360    1.4209    1.6417 H   0  0  0  0  0  0  0  0  0  0  0  0
   -1.4307   -2.1294    0.3624 C   0  0  0  0  0  0  0  0  0  0  0  0
   -2.2330   -3.0870    0.1970 O   0  0  0  0  0  0  0  0  0  0  0  0
   -0.2655   -2.1984    0.7688 O   0  0  0  0  0  1  0  0  0  0  0  0
   -4.2345   -1.5673    0.1327 O   0  0  0  0  0  0  0  0  0  0  0  0
   -3.6563   -2.4006    0.1577 H   0  0  0  0  0  0  0  0  0  0  0  0
  1  2  1  0  0  0  0
  1 32  1  0  0  0  0
  2 29  1  0  0  0  0
  3  2  2  0  0  0  0
  4  5  1  0  0  0  0
  4  3  1  0  0  0  0
  5  6  1  0  0  0  0
  6  7  1  0  0  0  0
  6  1  2  0  0  0  0
  7  9  1  0  0  0  0
  7 10  1  0  0  0  0
  8  7  1  0  0  0  0
 11  5  1  0  0  0  0
 11 13  1  0  0  0  0
 12 11  1  0  0  0  0
 14 11  1  0  0  0  0
 15  4  1  0  0  0  0
 16  3  1  0  0  0  0
 16 17  1  0  0  0  0
 17 28  1  0  0  0  0
 18 17  2  0  0  0  0
 18 27  1  0  0  0  0
 19 18  1  0  0  0  0
 20 21  1  0  0  0  0
 20 19  2  0  0  0  0
 21 16  2  0  0  0  0
 22 21  1  0  0  0  0
 23 20  1  0  0  0  0
 24 19  1  0  0  0  0
 25 24  2  0  0  0  0
 29 31  1  0  0  0  0
 30 29  2  0  0  0  0
 32 33  1  0  0  0  0
M  END
>  <target>  (23)
-1.15

$$$$
-73.80291870
 OpenBabel07082014033D

 36 37  0  0  0  0  0  0  0  0999 V2000
   -3.9180   -0.6527   -0.1298 C   0  0  0  0  0  0  0  0  0  0  0  0
   -2.5302   -0.7452    0.0556 C   0  0  0  0  0  0  0  0  0  0  0  0
   -1.7761    0.4297    0.0812 C   0  0  0  0  0  0  0  0  0  0  0  0
   -2.4254    1.6430   -0.0442 C   0  0  0  0  0  3  0  0  0  0  0  0
   -3.7552    1.7177   -0.1989 N   0  0  0  0  0  0  0  0  0  0  0  0
   -4.5221    0.6197   -0.2520 C   0  0  0  0  0  0  0  0  0  0  0  0
   -5.9901    0.7365   -0.4347 C   0  0  0  0  0  0  0  0  0  0  0  0
   -6.2279    1.2401   -1.3706 H   0  0  0  0  0  0  0  0  0  0  0  0
   -6.4231   -0.2596   -0.4522 H   0  0  0  0  0  0  0  0  0  0  0  0
   -6.4417    1.3024    0.3789 H   0  0  0  0  0  0  0  0  0  0  0  0
   -4.3760    3.0191   -0.3165 C   0  0  0  0  0  0  0  0  0  0  0  0
   -5.1040    3.1607    0.4827 H   0  0  0  0  0  0  0  0  0  0  0  0
   -3.6205    3.7976   -0.2511 H   0  0  0  0  0  0  0  0  0  0  0  0
   -4.8927    3.1034   -1.2731 H   0  0  0  0  0  0  0  0  0  0  0  0
   -1.8680    2.5660   -0.0241 H   0  0  0  0  0  0  0  0  0  0  0  0
   -0.3064    0.4065    0.2278 C   0  0  0  0  0  0  0  0  0  0  0  0
    0.4982    0.0913   -0.8677 C   0  0  0  0  0  0  0  0  0  0  0  0
    1.8693    0.0851   -0.7520 C   0  0  0  0  0  0  0  0  0  0  0  0
    2.4698    0.4179    0.4715 C   0  0  0  0  0  0  0  0  0  0  0  0
    1.6542    0.7752    1.5583 C   0  0  0  0  0  0  0  0  0  0  0  0
    0.2854    0.7827    1.4337 C   0  0  0  0  0  0  0  0  0  0  0  0
   -0.3343    1.0446    2.2766 H   0  0  0  0  0  0  0  0  0  0  0  0
    2.1320    1.0378    2.4894 H   0  0  0  0  0  0  0  0  0  0  0  0
    3.8987    0.3987    0.6964 C   0  0  0  0  0  0  0  0  0  0  0  0
    4.4669    0.6704    1.7338 O   0  0  0  0  0  0  0  0  0  0  0  0
    4.7992   -0.0147   -0.5076 C   0  0  0  0  0  0  0  0  0  0  0  0
    6.0932    0.0098   -0.1691 F   0  0  0  0  0  0  0  0  0  0  0  0
    4.5453   -1.2567   -0.9557 F   0  0  0  0  0  0  0  0  0  0  0  0
    4.6684    0.8079   -1.5640 F   0  0  0  0  0  0  0  0  0  0  0  0
    2.4622   -0.1829   -1.6111 H   0  0  0  0  0  0  0  0  0  0  0  0
    0.0381   -0.1776   -1.8058 H   0  0  0  0  0  0  0  0  0  0  0  0
   -1.8747   -2.1118    0.2913 C   0  0  0  0  0  0  0  0  0  0  0  0
   -0.6929   -2.1161    0.6564 O   0  0  0  0  0  1  0  0  0  0  0  0
   -2.6157   -3.1139    0.1127 O   0  0  0  0  0  0  0  0  0  0  0  0
   -4.6913   -1.7269   -0.1916 O   0  0  0  0  0  0  0  0  0  0  0  0
   -4.0664   -2.5214   -0.0971 H   0  0  0  0  0  0  0  0  0  0  0  0
  1  2  1  0  0  0  0
  2  3  2  0  0  0  0
  2 32  1  0  0  0  0
  3 16  1  0  0  0  0
  4 15  1  0  0  0  0
  4  3  1  0  0  0  0
  5  4  1  0  0  0  0
  6  5  1  0  0  0  0
  6  1  2  0  0  0  0
  7  6  1  0  0  0  0
  7 10  1  0  0  0  0
  8  7  1  0  0  0  0
  9  7  1  0  0  0  0
 11 13  1  0  0  0  0
 11  5  1  0  0  0  0
 11 12  1  0  0  0  0
 14 11  1  0  0  0  0
 16 21  1  0  0  0  0
 17 18  1  0  0  0  0
 17 16  2  0  0  0  0
 18 19  2  0  0  0  0
 19 24  1  0  0  0  0
 19 20  1  0  0  0  0
 20 23  1  0  0  0  0
 21 20  2  0  0  0  0
 21 22  1  0  0  0  0
 24 25  2  0  0  0  0
 26 27  1  0  0  0  0
 26 24  1  0  0  0  0
 28 26  1  0  0  0  0
 29 26  1  0  0  0  0
 30 18  1  0  0  0  0
 31 17  1  0  0  0  0
 32 33  1  0  0  0  0
 34 32  2  0  0  0  0
 35  1  1  0  0  0  0
 35 36  1  0  0  0  0
M  END
>  <target>  (24)
-0.88

$$$$
-72.85465038
 OpenBabel07082014033D

 43 45  0  0  0  0  0  0  0  0999 V2000
   -4.1832   -0.5524   -0.2200 C   0  0  0  0  0  0  0  0  0  0  0  0
   -2.7986   -0.7122   -0.0539 C   0  0  0  0  0  0  0  0  0  0  0  0
   -2.0094    0.4304    0.1095 C   0  0  0  0  0  0  0  0  0  0  0  0
   -2.6147    1.6720    0.0300 C   0  0  0  0  0  3  0  0  0  0  0  0
   -3.9296    1.8082   -0.1862 N   0  0  0  0  0  0  0  0  0  0  0  0
   -4.7369    0.7433   -0.3008 C   0  0  0  0  0  0  0  0  0  0  0  0
   -6.1953    0.9265   -0.5122 C   0  0  0  0  0  0  0  0  0  0  0  0
   -6.6419    1.4827    0.3106 H   0  0  0  0  0  0  0  0  0  0  0  0
   -6.6667   -0.0503   -0.5723 H   0  0  0  0  0  0  0  0  0  0  0  0
   -6.3911    1.4689   -1.4359 H   0  0  0  0  0  0  0  0  0  0  0  0
   -4.4939    3.1373   -0.2811 C   0  0  0  0  0  0  0  0  0  0  0  0
   -4.9820    3.2682   -1.2471 H   0  0  0  0  0  0  0  0  0  0  0  0
   -3.7079    3.8805   -0.1756 H   0  0  0  0  0  0  0  0  0  0  0  0
   -5.2346    3.2877    0.5047 H   0  0  0  0  0  0  0  0  0  0  0  0
   -2.0298    2.5700    0.1509 H   0  0  0  0  0  0  0  0  0  0  0  0
   -0.5677    0.3515    0.3963 C   0  0  0  0  0  0  0  0  0  0  0  0
   -0.1168   -0.3718    1.4973 C   0  0  0  0  0  0  0  0  0  0  0  0
    1.2309   -0.4356    1.7774 C   0  0  0  0  0  0  0  0  0  0  0  0
    2.1569    0.2031    0.9528 C   0  0  0  0  0  0  0  0  0  0  0  0
    1.7022    0.9514   -0.1314 C   0  0  0  0  0  0  0  0  0  0  0  0
    0.3498    1.0342   -0.3973 C   0  0  0  0  0  0  0  0  0  0  0  0
    0.0041    1.6008   -1.2479 H   0  0  0  0  0  0  0  0  0  0  0  0
    2.4082    1.4806   -0.7528 H   0  0  0  0  0  0  0  0  0  0  0  0
    3.5975    0.0916    1.2785 C   0  0  0  0  0  0  0  0  0  0  0  0
    3.9845   -0.0020    2.4366 O   0  0  0  0  0  0  0  0  0  0  0  0
    4.5465    0.0924    0.1433 C   0  0  0  0  0  0  0  0  0  0  0  0
    5.8201    0.6300    0.3280 C   0  0  0  0  0  0  0  0  0  0  0  0
    6.7344    0.6294   -0.7076 C   0  0  0  0  0  0  0  0  0  0  0  0
    6.3945    0.0699   -1.9297 C   0  0  0  0  0  0  0  0  0  0  0  0
    5.1400   -0.4912   -2.1125 C   0  0  0  0  0  0  0  0  0  0  0  0
    4.2140   -0.4784   -1.0854 C   0  0  0  0  0  0  0  0  0  0  0  0
    3.2444   -0.9349   -1.2212 H   0  0  0  0  0  0  0  0  0  0  0  0
    4.8811   -0.9418   -3.0583 H   0  0  0  0  0  0  0  0  0  0  0  0
    7.1100    0.0638   -2.7376 H   0  0  0  0  0  0  0  0  0  0  0  0
    7.7134    1.0591   -0.5609 H   0  0  0  0  0  0  0  0  0  0  0  0
    6.0668    1.0538    1.2904 H   0  0  0  0  0  0  0  0  0  0  0  0
    1.5919   -0.9984    2.6258 H   0  0  0  0  0  0  0  0  0  0  0  0
   -0.8271   -0.8888    2.1258 H   0  0  0  0  0  0  0  0  0  0  0  0
   -2.2021   -2.1223   -0.1876 C   0  0  0  0  0  0  0  0  0  0  0  0
   -1.0322   -2.2133   -0.5751 O   0  0  0  0  0  0  0  0  0  0  0  0
   -2.9958   -3.0714    0.0551 O   0  0  0  0  0  1  0  0  0  0  0  0
   -5.0042   -1.5941   -0.3088 O   0  0  0  0  0  0  0  0  0  0  0  0
   -4.4252   -2.4121   -0.1699 H   0  0  0  0  0  0  0  0  0  0  0  0
  1  2  1  0  0  0  0
  2  3  2  0  0  0  0
  3 16  1  0  0  0  0
  4  3  1  0  0  0  0
  4 15  1  0  0  0  0
  5  4  1  0  0  0  0
  6  1  2  0  0  0  0
  6  5  1  0  0  0  0
  7  6  1  0  0  0  0
  7  8  1  0  0  0  0
  9  7  1  0  0  0  0
 10  7  1  0  0  0  0
 11  5  1  0  0  0  0
 11 13  1  0  0  0  0
 11 14  1  0  0  0  0
 12 11  1  0  0  0  0
 16 17  1  0  0  0  0
 17 18  2  0  0  0  0
 17 38  1  0  0  0  0
 18 37  1  0  0  0  0
 19 24  1  0  0  0  0
 19 18  1  0  0  0  0
 20 19  2  0  0  0  0
 21 20  1  0  0  0  0
 21 16  2  0  0  0  0
 22 21  1  0  0  0  0
 23 20  1  0  0  0  0
 24 25  2  0  0  0  0
 26 27  1  0  0  0  0
 26 24  1  0  0  0  0
 27 36  1  0  0  0  0
 28 35  1  0  0  0  0
 28 27  2  0  0  0  0
 29 28  1  0  0  0  0
 30 29  2  0  0  0  0
 30 31  1  0  0  0  0
 31 26  2  0  0  0  0
 32 31  1  0  0  0  0
 33 30  1  0  0  0  0
 34 29  1  0  0  0  0
 39  2  1  0  0  0  0
 39 41  1  0  0  0  0
 40 39  2  0  0  0  0
 42  1  1  0  0  0  0
 42 43  1  0  0  0  0
M  END
>  <target>  (25)
-1.25

$$$$
-61.42876876
 OpenBabel07082014033D

 35 36  0  0  0  0  0  0  0  0999 V2000
   -2.9810   -0.6066   -0.0531 C   0  0  0  0  0  0  0  0  0  0  0  0
   -1.5868   -0.7372    0.0434 C   0  0  0  0  0  0  0  0  0  0  0  0
   -0.8034    0.4205    0.0083 C   0  0  0  0  0  0  0  0  0  0  0  0
   -1.4388    1.6488   -0.0444 C   0  0  0  0  0  3  0  0  0  0  0  0
   -2.7734    1.7581   -0.0732 N   0  0  0  0  0  0  0  0  0  0  0  0
   -3.5665    0.6766   -0.0933 C   0  0  0  0  0  0  0  0  0  0  0  0
   -5.0425    0.8295   -0.1570 C   0  0  0  0  0  0  0  0  0  0  0  0
   -5.4973   -0.1569   -0.1605 H   0  0  0  0  0  0  0  0  0  0  0  0
   -5.3405    1.3566   -1.0620 H   0  0  0  0  0  0  0  0  0  0  0  0
   -5.4156    1.3867    0.7008 H   0  0  0  0  0  0  0  0  0  0  0  0
   -3.3721    3.0752   -0.1020 C   0  0  0  0  0  0  0  0  0  0  0  0
   -3.9703    3.1963   -1.0053 H   0  0  0  0  0  0  0  0  0  0  0  0
   -4.0208    3.2097    0.7639 H   0  0  0  0  0  0  0  0  0  0  0  0
   -2.5946    3.8345   -0.0858 H   0  0  0  0  0  0  0  0  0  0  0  0
   -0.8600    2.5584   -0.0717 H   0  0  0  0  0  0  0  0  0  0  0  0
    0.6675    0.3735   -0.0140 C   0  0  0  0  0  0  0  0  0  0  0  0
    1.4141    1.1152    0.8962 C   0  0  0  0  0  0  0  0  0  0  0  0
    2.7949    1.0736    0.8688 C   0  0  0  0  0  0  0  0  0  0  0  0
    3.4517    0.3046   -0.0870 C   0  0  0  0  0  0  0  0  0  0  0  0
    2.7028   -0.4034   -1.0234 C   0  0  0  0  0  0  0  0  0  0  0  0
    1.3247   -0.3765   -0.9849 C   0  0  0  0  0  0  0  0  0  0  0  0
    0.7506   -0.9413   -1.7052 H   0  0  0  0  0  0  0  0  0  0  0  0
    3.2221   -0.9815   -1.7734 H   0  0  0  0  0  0  0  0  0  0  0  0
    4.9384    0.2226   -0.1666 C   0  0  0  0  0  0  0  0  0  0  0  0
    5.5287    0.0726   -1.2307 O   0  0  0  0  0  0  0  0  0  0  0  0
    5.5922    0.3338    1.0047 N   0  0  0  0  0  0  0  0  0  0  0  0
    5.1011    0.3234    1.8815 H   0  0  0  0  0  0  0  0  0  0  0  0
    6.5949    0.2355    1.0058 H   0  0  0  0  0  0  0  0  0  0  0  0
    3.3564    1.6636    1.5765 H   0  0  0  0  0  0  0  0  0  0  0  0
    0.9102    1.7000    1.6500 H   0  0  0  0  0  0  0  0  0  0  0  0
   -1.0024   -2.1322    0.3150 C   0  0  0  0  0  0  0  0  0  0  0  0
    0.0628   -2.1934    0.9384 O   0  0  0  0  0  1  0  0  0  0  0  0
   -1.7105   -3.1010   -0.0722 O   0  0  0  0  0  0  0  0  0  0  0  0
   -3.7834   -1.6661   -0.1051 O   0  0  0  0  0  0  0  0  0  0  0  0
   -3.1727   -2.4717   -0.1267 H   0  0  0  0  0  0  0  0  0  0  0  0
  1  2  1  0  0  0  0
  2 31  1  0  0  0  0
  3  2  2  0  0  0  0
  4  3  1  0  0  0  0
  5  4  1  0  0  0  0
  6  5  1  0  0  0  0
  6  1  2  0  0  0  0
  7  6  1  0  0  0  0
  7 10  1  0  0  0  0
  8  7  1  0  0  0  0
  9  7  1  0  0  0  0
 11 14  1  0  0  0  0
 11  5  1  0  0  0  0
 11 13  1  0  0  0  0
 12 11  1  0  0  0  0
 15  4  1  0  0  0  0
 16  3  1  0  0  0  0
 16 17  1  0  0  0  0
 17 30  1  0  0  0  0
 18 17  2  0  0  0  0
 18 29  1  0  0  0  0
 19 18  1  0  0  0  0
 20 21  1  0  0  0  0
 20 19  2  0  0  0  0
 21 16  2  0  0  0  0
 22 21  1  0  0  0  0
 23 20  1  0  0  0  0
 24 19  1  0  0  0  0
 24 26  1  0  0  0  0
 25 24  2  0  0  0  0
 26 28  1  0  0  0  0
 26 27  1  0  0  0  0
 31 32  1  0  0  0  0
 33 31  2  0  0  0  0
 34  1  1  0  0  0  0
 35 34  1  0  0  0  0
M  END
>  <target>  (26)
-1.18

$$$$
-67.06090782
 OpenBabel07082014033D

 34 35  0  0  0  0  0  0  0  0999 V2000
   -3.5862   -0.6077    0.0733 C   0  0  0  0  0  0  0  0  0  0  0  0
   -2.1919   -0.7268   -0.0395 C   0  0  0  0  0  0  0  0  0  0  0  0
   -1.4171    0.4368   -0.0203 C   0  0  0  0  0  0  0  0  0  0  0  0
   -2.0619    1.6605    0.0283 C   0  0  0  0  0  3  0  0  0  0  0  0
   -3.3972    1.7583    0.0672 N   0  0  0  0  0  0  0  0  0  0  0  0
   -4.1817    0.6704    0.1063 C   0  0  0  0  0  0  0  0  0  0  0  0
   -5.6582    0.8123    0.1836 C   0  0  0  0  0  0  0  0  0  0  0  0
   -5.9499    1.3521    1.0830 H   0  0  0  0  0  0  0  0  0  0  0  0
   -6.1031   -0.1782    0.2075 H   0  0  0  0  0  0  0  0  0  0  0  0
   -6.0436    1.3523   -0.6796 H   0  0  0  0  0  0  0  0  0  0  0  0
   -4.0082    3.0701    0.0883 C   0  0  0  0  0  0  0  0  0  0  0  0
   -3.2374    3.8354    0.0512 H   0  0  0  0  0  0  0  0  0  0  0  0
   -4.5934    3.1963    0.9994 H   0  0  0  0  0  0  0  0  0  0  0  0
   -4.6694    3.1869   -0.7705 H   0  0  0  0  0  0  0  0  0  0  0  0
   -1.4868    2.5724    0.0424 H   0  0  0  0  0  0  0  0  0  0  0  0
    0.0544    0.3902   -0.0100 C   0  0  0  0  0  0  0  0  0  0  0  0
    0.7092   -0.3903    0.9409 C   0  0  0  0  0  0  0  0  0  0  0  0
    2.0901   -0.4409    0.9572 C   0  0  0  0  0  0  0  0  0  0  0  0
    2.8065    0.2855    0.0315 C   0  0  0  0  0  0  0  0  0  0  0  0
    2.1791    1.0752   -0.9042 C   0  0  0  0  0  0  0  0  0  0  0  0
    0.7951    1.1367   -0.9222 C   0  0  0  0  0  0  0  0  0  0  0  0
    0.2920    1.7314   -1.6687 H   0  0  0  0  0  0  0  0  0  0  0  0
    2.7932    1.6194   -1.6043 H   0  0  0  0  0  0  0  0  0  0  0  0
    4.5845    0.1364    0.0784 S   0  0  0  0  0  0  0  0  0  0  0  0
    5.1249    1.0100   -0.9752 O   0  0  0  0  0  1  0  0  0  0  0  0
    4.8731   -1.2875   -0.1628 O   0  0  0  0  0  1  0  0  0  0  0  0
    4.9883    0.5700    1.4277 O   0  0  0  0  0  1  0  0  0  0  0  0
    2.6379   -1.0406    1.6674 H   0  0  0  0  0  0  0  0  0  0  0  0
    0.1350   -0.9623    1.6551 H   0  0  0  0  0  0  0  0  0  0  0  0
   -1.6053   -2.1200   -0.3159 C   0  0  0  0  0  0  0  0  0  0  0  0
   -0.5853   -2.1820   -1.0118 O   0  0  0  0  0  0  0  0  0  0  0  0
   -2.2773   -3.0862    0.1357 O   0  0  0  0  0  1  0  0  0  0  0  0
   -4.3782   -1.6737    0.1489 O   0  0  0  0  0  0  0  0  0  0  0  0
   -3.7643   -2.4725    0.1836 H   0  0  0  0  0  0  0  0  0  0  0  0
  1  6  2  0  0  0  0
  1 33  1  0  0  0  0
  2  3  2  0  0  0  0
  2  1  1  0  0  0  0
  3 16  1  0  0  0  0
  3  4  1  0  0  0  0
  4 15  1  0  0  0  0
  4  5  1  0  0  0  0
  5 11  1  0  0  0  0
  5  6  1  0  0  0  0
  6  7  1  0  0  0  0
  7  9  1  0  0  0  0
  7  8  1  0  0  0  0
 10  7  1  0  0  0  0
 11 13  1  0  0  0  0
 12 11  1  0  0  0  0
 14 11  1  0  0  0  0
 16 17  1  0  0  0  0
 17 18  2  0  0  0  0
 17 29  1  0  0  0  0
 18 28  1  0  0  0  0
 19 24  1  0  0  0  0
 19 18  1  0  0  0  0
 20 19  2  0  0  0  0
 21 20  1  0  0  0  0
 21 16  2  0  0  0  0
 22 21  1  0  0  0  0
 23 20  1  0  0  0  0
 24 27  1  0  0  0  0
 25 24  1  0  0  0  0
 26 24  1  0  0  0  0
 30  2  1  0  0  0  0
 30 32  1  0  0  0  0
 31 30  2  0  0  0  0
 33 34  1  0  0  0  0
M  END
>  <target>  (27)
-1.14

$$$$
-66.75889899
 OpenBabel07082014033D

 34 35  0  0  0  0  0  0  0  0999 V2000
   -3.5809   -0.6183   -0.0920 C   0  0  0  0  0  0  0  0  0  0  0  0
   -2.1886   -0.7155    0.0492 C   0  0  0  0  0  0  0  0  0  0  0  0
   -1.4269    0.4576    0.0368 C   0  0  0  0  0  0  0  0  0  0  0  0
   -2.0933    1.6712   -0.0142 C   0  0  0  0  0  3  0  0  0  0  0  0
   -3.4293    1.7481   -0.0642 N   0  0  0  0  0  0  0  0  0  0  0  0
   -4.1971    0.6479   -0.1249 C   0  0  0  0  0  0  0  0  0  0  0  0
   -5.6752    0.7681   -0.2234 C   0  0  0  0  0  0  0  0  0  0  0  0
   -6.1005   -0.2297   -0.2756 H   0  0  0  0  0  0  0  0  0  0  0  0
   -6.0816    1.2812    0.6464 H   0  0  0  0  0  0  0  0  0  0  0  0
   -5.9605    1.3231   -1.1152 H   0  0  0  0  0  0  0  0  0  0  0  0
   -4.0623    3.0501   -0.0808 C   0  0  0  0  0  0  0  0  0  0  0  0
   -4.7444    3.1419    0.7644 H   0  0  0  0  0  0  0  0  0  0  0  0
   -4.6262    3.1797   -1.0047 H   0  0  0  0  0  0  0  0  0  0  0  0
   -3.3042    3.8258   -0.0142 H   0  0  0  0  0  0  0  0  0  0  0  0
   -1.5305    2.5907   -0.0213 H   0  0  0  0  0  0  0  0  0  0  0  0
    0.0401    0.4191    0.0243 C   0  0  0  0  0  0  0  0  0  0  0  0
    0.6946   -0.4514   -0.8448 C   0  0  0  0  0  0  0  0  0  0  0  0
    2.0718   -0.5053   -0.8626 C   0  0  0  0  0  0  0  0  0  0  0  0
    2.8264    0.2954   -0.0203 C   0  0  0  0  0  0  0  0  0  0  0  0
    2.1767    1.1725    0.8305 C   0  0  0  0  0  0  0  0  0  0  0  0
    0.7962    1.2442    0.8517 C   0  0  0  0  0  0  0  0  0  0  0  0
    0.3072    1.9108    1.5474 H   0  0  0  0  0  0  0  0  0  0  0  0
    2.7883    1.7853    1.4807 H   0  0  0  0  0  0  0  0  0  0  0  0
    4.6721    0.1296   -0.0938 P   0  0  0  0  0  0  0  0  0  0  0  0
    4.9633   -1.3473    0.2028 O   0  0  0  0  0  1  0  0  0  0  0  0
    5.2518    1.0742    0.9618 O   0  0  0  0  0  1  0  0  0  0  0  0
    5.0518    0.5325   -1.5253 O   0  0  0  0  0  0  0  0  0  0  0  0
    2.6069   -1.1798   -1.5216 H   0  0  0  0  0  0  0  0  0  0  0  0
    0.1208   -1.0911   -1.5038 H   0  0  0  0  0  0  0  0  0  0  0  0
   -1.6014   -2.1014    0.3481 C   0  0  0  0  0  0  0  0  0  0  0  0
   -2.1944   -3.0654   -0.2070 O   0  0  0  0  0  0  0  0  0  0  0  0
   -0.6797   -2.1646    1.1719 O   0  0  0  0  0  1  0  0  0  0  0  0
   -4.3532   -1.7006   -0.1948 O   0  0  0  0  0  0  0  0  0  0  0  0
   -3.7294   -2.4834   -0.2472 H   0  0  0  0  0  0  0  0  0  0  0  0
  1  2  1  0  0  0  0
  2 30  1  0  0  0  0
  3  2  2  0  0  0  0
  4  3  1  0  0  0  0
  5  4  1  0  0  0  0
  6  1  2  0  0  0  0
  6  5  1  0  0  0  0
  7  6  1  0  0  0  0
  7  9  1  0  0  0  0
  8  7  1  0  0  0  0
 10  7  1  0  0  0  0
 11  5  1  0  0  0  0
 11 14  1  0  0  0  0
 11 12  1  0  0  0  0
 13 11  1  0  0  0  0
 15  4  1  0  0  0  0
 16  3  1  0  0  0  0
 16 21  1  0  0  0  0
 17 16  2  0  0  0  0
 18 17  1  0  0  0  0
 18 19  2  0  0  0  0
 19 20  1  0  0  0  0
 20 21  2  0  0  0  0
 20 23  1  0  0  0  0
 21 22  1  0  0  0  0
 24 19  1  0  0  0  0
 24 25  1  0  0  0  0
 24 26  1  0  0  0  0
 27 24  2  0  0  0  0
 28 18  1  0  0  0  0
 29 17  1  0  0  0  0
 30 32  1  0  0  0  0
 31 30  2  0  0  0  0
 33  1  1  0  0  0  0
 34 33  1  0  0  0  0
M  END
>  <target>  (28)
-1.24

$$$$
-55.84574411
 OpenBabel07082014033D

 32 33  0  0  0  0  0  0  0  0999 V2000
   -2.3661   -0.6296   -0.0580 C   0  0  0  0  0  0  0  0  0  0  0  0
   -0.9705   -0.7395    0.0366 C   0  0  0  0  0  0  0  0  0  0  0  0
   -0.2025    0.4305    0.0045 C   0  0  0  0  0  0  0  0  0  0  0  0
   -0.8632    1.6477   -0.0359 C   0  0  0  0  0  3  0  0  0  0  0  0
   -2.1986    1.7363   -0.0537 N   0  0  0  0  0  0  0  0  0  0  0  0
   -2.9745    0.6420   -0.0824 C   0  0  0  0  0  0  0  0  0  0  0  0
   -4.4537    0.7714   -0.1386 C   0  0  0  0  0  0  0  0  0  0  0  0
   -4.7642    1.3142   -1.0299 H   0  0  0  0  0  0  0  0  0  0  0  0
   -4.8911   -0.2224   -0.1625 H   0  0  0  0  0  0  0  0  0  0  0  0
   -4.8328    1.3012    0.7339 H   0  0  0  0  0  0  0  0  0  0  0  0
   -2.8187    3.0440   -0.0677 C   0  0  0  0  0  0  0  0  0  0  0  0
   -3.4098    3.1696   -0.9750 H   0  0  0  0  0  0  0  0  0  0  0  0
   -3.4774    3.1547    0.7937 H   0  0  0  0  0  0  0  0  0  0  0  0
   -2.0533    3.8147   -0.0320 H   0  0  0  0  0  0  0  0  0  0  0  0
   -0.3006    2.5673   -0.0617 H   0  0  0  0  0  0  0  0  0  0  0  0
    1.2649    0.4141   -0.0308 C   0  0  0  0  0  0  0  0  0  0  0  0
    1.9372   -0.4174   -0.9209 C   0  0  0  0  0  0  0  0  0  0  0  0
    3.3156   -0.4178   -0.9799 C   0  0  0  0  0  0  0  0  0  0  0  0
    4.0518    0.4114   -0.1386 C   0  0  0  0  0  0  0  0  0  0  0  0
    3.3848    1.2507    0.7505 C   0  0  0  0  0  0  0  0  0  0  0  0
    2.0072    1.2541    0.7967 C   0  0  0  0  0  0  0  0  0  0  0  0
    1.5031    1.8880    1.5093 H   0  0  0  0  0  0  0  0  0  0  0  0
    3.9676    1.8835    1.4003 H   0  0  0  0  0  0  0  0  0  0  0  0
    5.4071    0.4415   -0.1531 O   0  0  0  0  0  0  0  0  0  0  0  0
    5.7541   -0.1920   -0.7967 H   0  0  0  0  0  0  0  0  0  0  0  0
    3.8223   -1.0724   -1.6749 H   0  0  0  0  0  0  0  0  0  0  0  0
    1.3732   -1.0672   -1.5750 H   0  0  0  0  0  0  0  0  0  0  0  0
   -0.3811   -2.1311    0.3123 C   0  0  0  0  0  0  0  0  0  0  0  0
   -1.0480   -3.1010   -0.1416 O   0  0  0  0  0  0  0  0  0  0  0  0
    0.6391   -2.1936    1.0073 O   0  0  0  0  0  1  0  0  0  0  0  0
   -3.1528   -1.7035   -0.1224 O   0  0  0  0  0  0  0  0  0  0  0  0
   -2.5311   -2.4964   -0.1680 H   0  0  0  0  0  0  0  0  0  0  0  0
  1  2  1  0  0  0  0
  2 28  1  0  0  0  0
  3  2  2  0  0  0  0
  4  3  1  0  0  0  0
  5  4  1  0  0  0  0
  6  1  2  0  0  0  0
  6  5  1  0  0  0  0
  7  6  1  0  0  0  0
  7 10  1  0  0  0  0
  8  7  1  0  0  0  0
  9  7  1  0  0  0  0
 11  5  1  0  0  0  0
 11 14  1  0  0  0  0
 11 13  1  0  0  0  0
 12 11  1  0  0  0  0
 15  4  1  0  0  0  0
 16  3  1  0  0  0  0
 16 21  1  0  0  0  0
 17 16  2  0  0  0  0
 18 17  1  0  0  0  0
 18 19  2  0  0  0  0
 19 20  1  0  0  0  0
 20 21  2  0  0  0  0
 20 23  1  0  0  0  0
 21 22  1  0  0  0  0
 24 19  1  0  0  0  0
 25 24  1  0  0  0  0
 26 18  1  0  0  0  0
 27 17  1  0  0  0  0
 28 30  1  0  0  0  0
 29 28  2  0  0  0  0
 31  1  1  0  0  0  0
 32 31  1  0  0  0  0
M  END
>  <target>  (29)
-1.22

$$$$
-59.00219685
 OpenBabel07082014033D

 35 36  0  0  0  0  0  0  0  0999 V2000
   -2.6714   -0.6599   -0.0926 C   0  0  0  0  0  0  0  0  0  0  0  0
   -1.2780   -0.7400    0.0513 C   0  0  0  0  0  0  0  0  0  0  0  0
   -0.5334    0.4455    0.0353 C   0  0  0  0  0  0  0  0  0  0  0  0
   -1.2174    1.6484   -0.0356 C   0  0  0  0  0  3  0  0  0  0  0  0
   -2.5531    1.7088   -0.0992 N   0  0  0  0  0  0  0  0  0  0  0  0
   -3.3047    0.5984   -0.1474 C   0  0  0  0  0  0  0  0  0  0  0  0
   -4.7835    0.6965   -0.2558 C   0  0  0  0  0  0  0  0  0  0  0  0
   -5.2039    1.2189    0.6021 H   0  0  0  0  0  0  0  0  0  0  0  0
   -5.0741    1.2318   -1.1582 H   0  0  0  0  0  0  0  0  0  0  0  0
   -5.1989   -0.3063   -0.2930 H   0  0  0  0  0  0  0  0  0  0  0  0
   -3.1993    3.0031   -0.1436 C   0  0  0  0  0  0  0  0  0  0  0  0
   -2.4522    3.7899   -0.0813 H   0  0  0  0  0  0  0  0  0  0  0  0
   -3.8937    3.1029    0.6906 H   0  0  0  0  0  0  0  0  0  0  0  0
   -3.7564    3.1127   -1.0743 H   0  0  0  0  0  0  0  0  0  0  0  0
   -0.6734    2.5794   -0.0492 H   0  0  0  0  0  0  0  0  0  0  0  0
    0.9338    0.4573    0.0466 C   0  0  0  0  0  0  0  0  0  0  0  0
    1.6501   -0.3718   -0.8081 C   0  0  0  0  0  0  0  0  0  0  0  0
    3.0314   -0.3558   -0.8274 C   0  0  0  0  0  0  0  0  0  0  0  0
    3.7285    0.4947    0.0264 C   0  0  0  0  0  0  0  0  0  0  0  0
    3.0130    1.3369    0.8806 C   0  0  0  0  0  0  0  0  0  0  0  0
    1.6369    1.3220    0.8849 C   0  0  0  0  0  0  0  0  0  0  0  0
    1.1012    1.9582    1.5722 H   0  0  0  0  0  0  0  0  0  0  0  0
    3.5667    1.9868    1.5389 H   0  0  0  0  0  0  0  0  0  0  0  0
    5.0817    0.5855    0.1011 O   0  0  0  0  0  0  0  0  0  0  0  0
    5.8685   -0.2596   -0.7143 C   0  0  0  0  0  0  0  0  0  0  0  0
    5.6950   -0.0604   -1.7755 H   0  0  0  0  0  0  0  0  0  0  0  0
    5.6711   -1.3139   -0.5007 H   0  0  0  0  0  0  0  0  0  0  0  0
    6.9004   -0.0238   -0.4626 H   0  0  0  0  0  0  0  0  0  0  0  0
    3.5507   -1.0164   -1.5027 H   0  0  0  0  0  0  0  0  0  0  0  0
    1.1192   -1.0394   -1.4723 H   0  0  0  0  0  0  0  0  0  0  0  0
   -0.6709   -2.1171    0.3589 C   0  0  0  0  0  0  0  0  0  0  0  0
    0.3210   -2.1545    1.0954 O   0  0  0  0  0  1  0  0  0  0  0  0
   -1.2985   -3.1033   -0.1155 O   0  0  0  0  0  0  0  0  0  0  0  0
   -3.4327   -1.7509   -0.1759 O   0  0  0  0  0  0  0  0  0  0  0  0
   -2.7931   -2.5303   -0.1948 H   0  0  0  0  0  0  0  0  0  0  0  0
  1  2  1  0  0  0  0
  2 31  1  0  0  0  0
  3 16  1  0  0  0  0
  3  2  2  0  0  0  0
  4  3  1  0  0  0  0
  5  4  1  0  0  0  0
  6  5  1  0  0  0  0
  6  1  2  0  0  0  0
  7  6  1  0  0  0  0
  7  8  1  0  0  0  0
  9  7  1  0  0  0  0
 10  7  1  0  0  0  0
 11  5  1  0  0  0  0
 11 12  1  0  0  0  0
 11 13  1  0  0  0  0
 14 11  1  0  0  0  0
 15  4  1  0  0  0  0
 16 21  1  0  0  0  0
 17 16  2  0  0  0  0
 18 17  1  0  0  0  0
 18 19  2  0  0  0  0
 19 24  1  0  0  0  0
 19 20  1  0  0  0  0
 20 21  2  0  0  0  0
 20 23  1  0  0  0  0
 21 22  1  0  0  0  0
 25 27  1  0  0  0  0
 25 28  1  0  0  0  0
 25 24  1  0  0  0  0
 26 25  1  0  0  0  0
 29 18  1  0  0  0  0
 30 17  1  0  0  0  0
 31 32  1  0  0  0  0
 33 31  2  0  0  0  0
 34  1  1  0  0  0  0
 35 34  1  0  0  0  0
M  END
>  <target>  (30)
-1.22

$$$$
-71.17990449
 OpenBabel07082014033D

 35 36  0  0  0  0  0  0  0  0999 V2000
    3.7473    0.8012    0.1321 C   0  0  0  0  0  0  0  0  0  0  0  0
    2.3626    0.7256   -0.0816 C   0  0  0  0  0  0  0  0  0  0  0  0
    1.7494   -0.5318   -0.0744 C   0  0  0  0  0  0  0  0  0  0  0  0
    2.5522   -1.6536    0.0516 C   0  0  0  0  0  3  0  0  0  0  0  0
    3.8826   -1.5664    0.1760 N   0  0  0  0  0  0  0  0  0  0  0  0
    4.5081   -0.3805    0.2388 C   0  0  0  0  0  0  0  0  0  0  0  0
    5.9818   -0.3176    0.4173 C   0  0  0  0  0  0  0  0  0  0  0  0
    6.4956   -0.8070   -0.4084 H   0  0  0  0  0  0  0  0  0  0  0  0
    6.2820   -0.8033    1.3442 H   0  0  0  0  0  0  0  0  0  0  0  0
    6.2843    0.7249    0.4518 H   0  0  0  0  0  0  0  0  0  0  0  0
    4.6634   -2.7815    0.2703 C   0  0  0  0  0  0  0  0  0  0  0  0
    5.3966   -2.8163   -0.5354 H   0  0  0  0  0  0  0  0  0  0  0  0
    4.0089   -3.6457    0.1948 H   0  0  0  0  0  0  0  0  0  0  0  0
    5.1905   -2.8150    1.2240 H   0  0  0  0  0  0  0  0  0  0  0  0
    2.1080   -2.6359    0.0599 H   0  0  0  0  0  0  0  0  0  0  0  0
    0.2903   -0.6814   -0.1472 C   0  0  0  0  0  0  0  0  0  0  0  0
   -0.3018   -1.6121   -0.9966 C   0  0  0  0  0  0  0  0  0  0  0  0
   -1.6758   -1.7300   -1.0594 C   0  0  0  0  0  0  0  0  0  0  0  0
   -2.4863   -0.9271   -0.2570 C   0  0  0  0  0  0  0  0  0  0  0  0
   -1.9014   -0.0217    0.6186 C   0  0  0  0  0  0  0  0  0  0  0  0
   -0.5263    0.1008    0.6641 C   0  0  0  0  0  0  0  0  0  0  0  0
   -0.0834    0.8168    1.3419 H   0  0  0  0  0  0  0  0  0  0  0  0
   -2.5413    0.5804    1.2394 H   0  0  0  0  0  0  0  0  0  0  0  0
   -3.8372   -1.0778   -0.3586 O   0  0  0  0  0  0  0  0  0  0  0  0
   -4.7424    0.1506    0.2421 S   0  0  0  0  0  0  0  0  0  0  0  0
   -4.6408    0.0771    1.6917 O   0  0  0  0  0  1  0  0  0  0  0  0
   -4.2103    1.3753   -0.3310 O   0  0  0  0  0  1  0  0  0  0  0  0
   -6.0627   -0.1994   -0.2512 O   0  0  0  0  0  1  0  0  0  0  0  0
   -2.1477   -2.4282   -1.7318 H   0  0  0  0  0  0  0  0  0  0  0  0
    0.3098   -2.2181   -1.6464 H   0  0  0  0  0  0  0  0  0  0  0  0
    1.6285    2.0221   -0.4552 C   0  0  0  0  0  0  0  0  0  0  0  0
    0.7226    1.9405   -1.2933 O   0  0  0  0  0  0  0  0  0  0  0  0
    2.0916    3.0716    0.0676 O   0  0  0  0  0  1  0  0  0  0  0  0
    4.3791    1.9701    0.2346 O   0  0  0  0  0  0  0  0  0  0  0  0
    3.6637    2.6749    0.2174 H   0  0  0  0  0  0  0  0  0  0  0  0
  1 34  1  0  0  0  0
  1  6  2  0  0  0  0
  2  3  2  0  0  0  0
  2  1  1  0  0  0  0
  3  4  1  0  0  0  0
  4 15  1  0  0  0  0
  4  5  1  0  0  0  0
  5  6  1  0  0  0  0
  5 11  1  0  0  0  0
  6  7  1  0  0  0  0
  7 10  1  0  0  0  0
  7  9  1  0  0  0  0
  8  7  1  0  0  0  0
 11 14  1  0  0  0  0
 12 11  1  0  0  0  0
 13 11  1  0  0  0  0
 16  3  1  0  0  0  0
 16 21  1  0  0  0  0
 17 16  2  0  0  0  0
 18 17  1  0  0  0  0
 18 19  2  0  0  0  0
 19 20  1  0  0  0  0
 20 21  2  0  0  0  0
 20 23  1  0  0  0  0
 21 22  1  0  0  0  0
 24 19  1  0  0  0  0
 24 25  1  0  0  0  0
 25 26  1  0  0  0  0
 27 25  1  0  0  0  0
 28 25  1  0  0  0  0
 29 18  1  0  0  0  0
 30 17  1  0  0  0  0
 31  2  1  0  0  0  0
 31 33  1  0  0  0  0
 32 31  2  0  0  0  0
 35 34  1  0  0  0  0
M  END
>  <target>  (31)
-1.23

$$$$
-70.88424426
 OpenBabel07082014033D

 35 36  0  0  0  0  0  0  0  0999 V2000
   -3.7765   -0.7874    0.1597 C   0  0  0  0  0  0  0  0  0  0  0  0
   -2.3976   -0.7182   -0.0854 C   0  0  0  0  0  0  0  0  0  0  0  0
   -1.7751    0.5359   -0.0909 C   0  0  0  0  0  0  0  0  0  0  0  0
   -2.5744    1.6612    0.0413 C   0  0  0  0  0  3  0  0  0  0  0  0
   -3.9027    1.5796    0.1860 N   0  0  0  0  0  0  0  0  0  0  0  0
   -4.5317    0.3961    0.2714 C   0  0  0  0  0  0  0  0  0  0  0  0
   -6.0029    0.3405    0.4778 C   0  0  0  0  0  0  0  0  0  0  0  0
   -6.5291    0.8258   -0.3421 H   0  0  0  0  0  0  0  0  0  0  0  0
   -6.2824    0.8333    1.4072 H   0  0  0  0  0  0  0  0  0  0  0  0
   -6.3062   -0.7011    0.5251 H   0  0  0  0  0  0  0  0  0  0  0  0
   -4.6791    2.7979    0.2817 C   0  0  0  0  0  0  0  0  0  0  0  0
   -4.0219    3.6583    0.1889 H   0  0  0  0  0  0  0  0  0  0  0  0
   -5.1906    2.8407    1.2433 H   0  0  0  0  0  0  0  0  0  0  0  0
   -5.4228    2.8271   -0.5145 H   0  0  0  0  0  0  0  0  0  0  0  0
   -2.1245    2.6407    0.0380 H   0  0  0  0  0  0  0  0  0  0  0  0
   -0.3195    0.6680   -0.1787 C   0  0  0  0  0  0  0  0  0  0  0  0
    0.2853    1.6329   -0.9815 C   0  0  0  0  0  0  0  0  0  0  0  0
    1.6580    1.7215   -1.0621 C   0  0  0  0  0  0  0  0  0  0  0  0
    2.4750    0.8509   -0.3288 C   0  0  0  0  0  0  0  0  0  0  0  0
    1.8679   -0.0899    0.5012 C   0  0  0  0  0  0  0  0  0  0  0  0
    0.4953   -0.1812    0.5665 C   0  0  0  0  0  0  0  0  0  0  0  0
    0.0526   -0.9275    1.2134 H   0  0  0  0  0  0  0  0  0  0  0  0
    2.5065   -0.7475    1.0693 H   0  0  0  0  0  0  0  0  0  0  0  0
    3.8044    0.9790   -0.4640 O   0  0  0  0  0  0  0  0  0  0  0  0
    4.9071   -0.1384    0.2898 P   0  0  0  0  0  0  0  0  0  0  0  0
    6.2265    0.3835   -0.2407 O   0  0  0  0  0  0  0  0  0  0  0  0
    4.7073    0.0568    1.7863 O   0  0  0  0  0  1  0  0  0  0  0  0
    4.5085   -1.5094   -0.2376 O   0  0  0  0  0  1  0  0  0  0  0  0
    2.1390    2.4454   -1.7026 H   0  0  0  0  0  0  0  0  0  0  0  0
   -0.3187    2.2911   -1.5871 H   0  0  0  0  0  0  0  0  0  0  0  0
   -1.6879   -2.0205   -0.4776 C   0  0  0  0  0  0  0  0  0  0  0  0
   -0.8584   -1.9620   -1.3948 O   0  0  0  0  0  0  0  0  0  0  0  0
   -2.1074   -3.0568    0.1058 O   0  0  0  0  0  1  0  0  0  0  0  0
   -4.4094   -1.9560    0.2866 O   0  0  0  0  0  0  0  0  0  0  0  0
   -3.6982   -2.6600    0.2724 H   0  0  0  0  0  0  0  0  0  0  0  0
  1  6  2  0  0  0  0
  1 34  1  0  0  0  0
  2  1  1  0  0  0  0
  3  2  2  0  0  0  0
  3  4  1  0  0  0  0
  4  5  1  0  0  0  0
  5  6  1  0  0  0  0
  5 11  1  0  0  0  0
  6  7  1  0  0  0  0
  7 10  1  0  0  0  0
  7  9  1  0  0  0  0
  8  7  1  0  0  0  0
 11 13  1  0  0  0  0
 12 11  1  0  0  0  0
 14 11  1  0  0  0  0
 15  4  1  0  0  0  0
 16  3  1  0  0  0  0
 16 21  1  0  0  0  0
 17 16  2  0  0  0  0
 18 17  1  0  0  0  0
 18 19  2  0  0  0  0
 19 20  1  0  0  0  0
 20 21  2  0  0  0  0
 20 23  1  0  0  0  0
 21 22  1  0  0  0  0
 24 19  1  0  0  0  0
 24 25  1  0  0  0  0
 25 27  1  0  0  0  0
 26 25  2  0  0  0  0
 28 25  1  0  0  0  0
 29 18  1  0  0  0  0
 30 17  1  0  0  0  0
 31  2  1  0  0  0  0
 31 33  1  0  0  0  0
 32 31  2  0  0  0  0
 35 34  1  0  0  0  0
M  END
>  <target>  (32)
-1.27

$$$$
-55.20948688
 OpenBabel07082014033D

 33 34  0  0  0  0  0  0  0  0999 V2000
   -2.3463   -0.6227    0.0745 C   0  0  0  0  0  0  0  0  0  0  0  0
   -0.9538   -0.7365   -0.0405 C   0  0  0  0  0  0  0  0  0  0  0  0
   -0.1785    0.4315   -0.0213 C   0  0  0  0  0  0  0  0  0  0  0  0
   -0.8411    1.6500    0.0134 C   0  0  0  0  0  3  0  0  0  0  0  0
   -2.1754    1.7411    0.0431 N   0  0  0  0  0  0  0  0  0  0  0  0
   -2.9536    0.6486    0.0950 C   0  0  0  0  0  0  0  0  0  0  0  0
   -4.4323    0.7818    0.1709 C   0  0  0  0  0  0  0  0  0  0  0  0
   -4.8701   -0.2112    0.2136 H   0  0  0  0  0  0  0  0  0  0  0  0
   -4.7292    1.3357    1.0600 H   0  0  0  0  0  0  0  0  0  0  0  0
   -4.8236    1.3004   -0.7029 H   0  0  0  0  0  0  0  0  0  0  0  0
   -2.7933    3.0502    0.0510 C   0  0  0  0  0  0  0  0  0  0  0  0
   -3.3691    3.1878    0.9663 H   0  0  0  0  0  0  0  0  0  0  0  0
   -2.0269    3.8186   -0.0064 H   0  0  0  0  0  0  0  0  0  0  0  0
   -3.4655    3.1513   -0.8009 H   0  0  0  0  0  0  0  0  0  0  0  0
   -0.2786    2.5697    0.0277 H   0  0  0  0  0  0  0  0  0  0  0  0
    1.2830    0.4115    0.0180 C   0  0  0  0  0  0  0  0  0  0  0  0
    1.9547   -0.4710    0.8639 C   0  0  0  0  0  0  0  0  0  0  0  0
    3.3279   -0.4713    0.9375 C   0  0  0  0  0  0  0  0  0  0  0  0
    4.0873    0.4038    0.1516 C   0  0  0  0  0  0  0  0  0  0  0  0
    3.4123    1.2866   -0.6983 C   0  0  0  0  0  0  0  0  0  0  0  0
    2.0373    1.2947   -0.7547 C   0  0  0  0  0  0  0  0  0  0  0  0
    1.5394    1.9633   -1.4405 H   0  0  0  0  0  0  0  0  0  0  0  0
    3.9823    1.9605   -1.3202 H   0  0  0  0  0  0  0  0  0  0  0  0
    5.4498    0.4432    0.2646 N   0  0  0  0  0  0  0  0  0  0  0  0
    5.8995   -0.3510    0.6876 H   0  0  0  0  0  0  0  0  0  0  0  0
    5.9602    0.8981   -0.4734 H   0  0  0  0  0  0  0  0  0  0  0  0
    3.8302   -1.1594    1.6019 H   0  0  0  0  0  0  0  0  0  0  0  0
    1.3845   -1.1568    1.4764 H   0  0  0  0  0  0  0  0  0  0  0  0
   -0.3820   -2.1301   -0.3322 C   0  0  0  0  0  0  0  0  0  0  0  0
    0.5932   -2.2021   -1.0892 O   0  0  0  0  0  0  0  0  0  0  0  0
   -1.0236   -3.0956    0.1673 O   0  0  0  0  0  1  0  0  0  0  0  0
   -3.1340   -1.6975    0.1610 O   0  0  0  0  0  0  0  0  0  0  0  0
   -2.5119   -2.4878    0.2099 H   0  0  0  0  0  0  0  0  0  0  0  0
  1  6  2  0  0  0  0
  1 32  1  0  0  0  0
  2  3  2  0  0  0  0
  2  1  1  0  0  0  0
  3  4  1  0  0  0  0
  3 16  1  0  0  0  0
  4 15  1  0  0  0  0
  4  5  1  0  0  0  0
  5 11  1  0  0  0  0
  5  6  1  0  0  0  0
  6  7  1  0  0  0  0
  7  8  1  0  0  0  0
  7  9  1  0  0  0  0
 10  7  1  0  0  0  0
 11 12  1  0  0  0  0
 13 11  1  0  0  0  0
 14 11  1  0  0  0  0
 16 17  1  0  0  0  0
 17 18  2  0  0  0  0
 17 28  1  0  0  0  0
 18 27  1  0  0  0  0
 19 24  1  0  0  0  0
 19 18  1  0  0  0  0
 20 19  2  0  0  0  0
 21 20  1  0  0  0  0
 21 16  2  0  0  0  0
 22 21  1  0  0  0  0
 23 20  1  0  0  0  0
 24 25  1  0  0  0  0
 26 24  1  0  0  0  0
 29  2  1  0  0  0  0
 29 31  1  0  0  0  0
 30 29  2  0  0  0  0
 32 33  1  0  0  0  0
M  END
>  <target>  (33)
-1.24

$$$$
-58.37380755
 OpenBabel07082014033D

 36 37  0  0  0  0  0  0  0  0999 V2000
   -2.7094   -0.5391    0.0442 C   0  0  0  0  0  0  0  0  0  0  0  0
   -1.3232   -0.7255   -0.0443 C   0  0  0  0  0  0  0  0  0  0  0  0
   -0.4867    0.3996    0.0048 C   0  0  0  0  0  0  0  0  0  0  0  0
   -1.0863    1.6510    0.0390 C   0  0  0  0  0  3  0  0  0  0  0  0
   -2.4139    1.8121    0.0421 N   0  0  0  0  0  0  0  0  0  0  0  0
   -3.2498    0.7618    0.0663 C   0  0  0  0  0  0  0  0  0  0  0  0
   -4.7209    0.9727    0.1136 C   0  0  0  0  0  0  0  0  0  0  0  0
   -5.2113    0.0039    0.1336 H   0  0  0  0  0  0  0  0  0  0  0  0
   -5.0070    1.5299    1.0041 H   0  0  0  0  0  0  0  0  0  0  0  0
   -5.0657    1.5224   -0.7607 H   0  0  0  0  0  0  0  0  0  0  0  0
   -2.9621    3.1519    0.0519 C   0  0  0  0  0  0  0  0  0  0  0  0
   -3.5512    3.3096    0.9554 H   0  0  0  0  0  0  0  0  0  0  0  0
   -2.1553    3.8793    0.0212 H   0  0  0  0  0  0  0  0  0  0  0  0
   -3.6078    3.2974   -0.8140 H   0  0  0  0  0  0  0  0  0  0  0  0
   -0.4772    2.5399    0.0759 H   0  0  0  0  0  0  0  0  0  0  0  0
    0.9685    0.3015    0.0765 C   0  0  0  0  0  0  0  0  0  0  0  0
    1.7895    1.1660   -0.6468 C   0  0  0  0  0  0  0  0  0  0  0  0
    3.1615    1.0869   -0.5636 C   0  0  0  0  0  0  0  0  0  0  0  0
    3.7723    0.1424    0.2717 C   0  0  0  0  0  0  0  0  0  0  0  0
    5.1231    0.0671    0.4283 N   0  0  0  0  0  0  0  0  0  0  0  0
    5.4623   -0.7632    0.8868 H   0  0  0  0  0  0  0  0  0  0  0  0
    6.0617    0.7583   -0.4222 C   0  0  0  0  0  0  0  0  0  0  0  0
    7.0697    0.5194   -0.0942 H   0  0  0  0  0  0  0  0  0  0  0  0
    5.9167    1.8358   -0.3357 H   0  0  0  0  0  0  0  0  0  0  0  0
    5.9543    0.4711   -1.4738 H   0  0  0  0  0  0  0  0  0  0  0  0
    2.9421   -0.7181    1.0079 C   0  0  0  0  0  0  0  0  0  0  0  0
    1.5751   -0.6445    0.9055 C   0  0  0  0  0  0  0  0  0  0  0  0
    0.9563   -1.3191    1.4827 H   0  0  0  0  0  0  0  0  0  0  0  0
    3.3907   -1.4550    1.6593 H   0  0  0  0  0  0  0  0  0  0  0  0
    3.7649    1.7517   -1.1590 H   0  0  0  0  0  0  0  0  0  0  0  0
    1.3451    1.8813   -1.3225 H   0  0  0  0  0  0  0  0  0  0  0  0
   -0.8232   -2.1439   -0.3459 C   0  0  0  0  0  0  0  0  0  0  0  0
   -1.5184   -3.0797    0.1385 O   0  0  0  0  0  1  0  0  0  0  0  0
    0.1517   -2.2593   -1.0984 O   0  0  0  0  0  0  0  0  0  0  0  0
   -3.5548   -1.5722    0.1026 O   0  0  0  0  0  0  0  0  0  0  0  0
   -2.9773   -2.3943    0.1562 H   0  0  0  0  0  0  0  0  0  0  0  0
  1  6  2  0  0  0  0
  1 35  1  0  0  0  0
  2  3  2  0  0  0  0
  2  1  1  0  0  0  0
  3  4  1  0  0  0  0
  3 16  1  0  0  0  0
  4  5  1  0  0  0  0
  4 15  1  0  0  0  0
  5 11  1  0  0  0  0
  5  6  1  0  0  0  0
  6  7  1  0  0  0  0
  7  8  1  0  0  0  0
  7  9  1  0  0  0  0
 10  7  1  0  0  0  0
 11 12  1  0  0  0  0
 13 11  1  0  0  0  0
 14 11  1  0  0  0  0
 16 27  1  0  0  0  0
 17 18  1  0  0  0  0
 17 16  2  0  0  0  0
 18 19  2  0  0  0  0
 19 20  1  0  0  0  0
 19 26  1  0  0  0  0
 20 21  1  0  0  0  0
 22 24  1  0  0  0  0
 22 23  1  0  0  0  0
 22 20  1  0  0  0  0
 25 22  1  0  0  0  0
 26 29  1  0  0  0  0
 27 26  2  0  0  0  0
 27 28  1  0  0  0  0
 30 18  1  0  0  0  0
 31 17  1  0  0  0  0
 32  2  1  0  0  0  0
 32 33  1  0  0  0  0
 34 32  2  0  0  0  0
 35 36  1  0  0  0  0
M  END
>  <target>  (34)
-1.25

$$$$
-61.53893340
 OpenBabel07082014033D

 39 40  0  0  0  0  0  0  0  0999 V2000
   -2.9733   -0.5844   -0.0793 C   0  0  0  0  0  0  0  0  0  0  0  0
   -1.5873   -0.7275    0.0659 C   0  0  0  0  0  0  0  0  0  0  0  0
   -0.7811    0.4214    0.0251 C   0  0  0  0  0  0  0  0  0  0  0  0
   -1.4179    1.6533   -0.0513 C   0  0  0  0  0  3  0  0  0  0  0  0
   -2.7484    1.7739   -0.1039 N   0  0  0  0  0  0  0  0  0  0  0  0
   -3.5516    0.6985   -0.1433 C   0  0  0  0  0  0  0  0  0  0  0  0
   -5.0258    0.8639   -0.2484 C   0  0  0  0  0  0  0  0  0  0  0  0
   -5.2950    1.4033   -1.1549 H   0  0  0  0  0  0  0  0  0  0  0  0
   -5.4851   -0.1198   -0.2761 H   0  0  0  0  0  0  0  0  0  0  0  0
   -5.4201    1.4107    0.6067 H   0  0  0  0  0  0  0  0  0  0  0  0
   -3.3359    3.0962   -0.1536 C   0  0  0  0  0  0  0  0  0  0  0  0
   -3.8915    3.2249   -1.0825 H   0  0  0  0  0  0  0  0  0  0  0  0
   -4.0208    3.2319    0.6831 H   0  0  0  0  0  0  0  0  0  0  0  0
   -2.5532    3.8481   -0.0994 H   0  0  0  0  0  0  0  0  0  0  0  0
   -0.8358    2.5603   -0.0820 H   0  0  0  0  0  0  0  0  0  0  0  0
    0.6751    0.3642    0.0016 C   0  0  0  0  0  0  0  0  0  0  0  0
    1.4543    1.2881    0.7000 C   0  0  0  0  0  0  0  0  0  0  0  0
    2.8274    1.2448    0.6580 C   0  0  0  0  0  0  0  0  0  0  0  0
    3.5037    0.2775   -0.1077 C   0  0  0  0  0  0  0  0  0  0  0  0
    4.8616    0.2390   -0.1710 N   0  0  0  0  0  0  0  0  0  0  0  0
    5.6624    1.2561    0.4690 C   0  0  0  0  0  0  0  0  0  0  0  0
    5.6475    1.1580    1.5596 H   0  0  0  0  0  0  0  0  0  0  0  0
    6.6902    1.1678    0.1269 H   0  0  0  0  0  0  0  0  0  0  0  0
    5.3000    2.2484    0.1977 H   0  0  0  0  0  0  0  0  0  0  0  0
    5.5383   -0.8932   -0.7591 C   0  0  0  0  0  0  0  0  0  0  0  0
    6.5924   -0.8590   -0.4975 H   0  0  0  0  0  0  0  0  0  0  0  0
    5.4507   -0.8857   -1.8500 H   0  0  0  0  0  0  0  0  0  0  0  0
    5.1246   -1.8318   -0.3825 H   0  0  0  0  0  0  0  0  0  0  0  0
    2.7107   -0.6410   -0.8214 C   0  0  0  0  0  0  0  0  0  0  0  0
    1.3393   -0.6003   -0.7574 C   0  0  0  0  0  0  0  0  0  0  0  0
    0.7602   -1.3183   -1.3242 H   0  0  0  0  0  0  0  0  0  0  0  0
    3.1705   -1.3943   -1.4395 H   0  0  0  0  0  0  0  0  0  0  0  0
    3.3813    1.9545    1.2485 H   0  0  0  0  0  0  0  0  0  0  0  0
    0.9739    2.0225    1.3292 H   0  0  0  0  0  0  0  0  0  0  0  0
   -1.0626   -2.1237    0.4197 C   0  0  0  0  0  0  0  0  0  0  0  0
   -0.1295   -2.1965    1.2289 O   0  0  0  0  0  1  0  0  0  0  0  0
   -1.7018   -3.0891   -0.0842 O   0  0  0  0  0  0  0  0  0  0  0  0
   -3.7850   -1.6445   -0.1526 O   0  0  0  0  0  0  0  0  0  0  0  0
   -3.1814   -2.4485   -0.1707 H   0  0  0  0  0  0  0  0  0  0  0  0
  1  2  1  0  0  0  0
  2 35  1  0  0  0  0
  3  2  2  0  0  0  0
  4  3  1  0  0  0  0
  5  4  1  0  0  0  0
  6  5  1  0  0  0  0
  6  1  2  0  0  0  0
  7  6  1  0  0  0  0
  7 10  1  0  0  0  0
  8  7  1  0  0  0  0
  9  7  1  0  0  0  0
 11  5  1  0  0  0  0
 11 14  1  0  0  0  0
 11 13  1  0  0  0  0
 12 11  1  0  0  0  0
 15  4  1  0  0  0  0
 16  3  1  0  0  0  0
 16 17  1  0  0  0  0
 17 34  1  0  0  0  0
 18 17  2  0  0  0  0
 18 33  1  0  0  0  0
 19 18  1  0  0  0  0
 20 19  1  0  0  0  0
 20 21  1  0  0  0  0
 21 22  1  0  0  0  0
 23 21  1  0  0  0  0
 24 21  1  0  0  0  0
 25 26  1  0  0  0  0
 25 28  1  0  0  0  0
 25 20  1  0  0  0  0
 27 25  1  0  0  0  0
 29 30  1  0  0  0  0
 29 19  2  0  0  0  0
 30 16  2  0  0  0  0
 31 30  1  0  0  0  0
 32 29  1  0  0  0  0
 35 36  1  0  0  0  0
 37 35  2  0  0  0  0
 38  1  1  0  0  0  0
 39 38  1  0  0  0  0
M  END
>  <target>  (35)
-1.23

$$$$
-64.87235221
 OpenBabel07082014033D

 43 44  0  0  0  0  0  0  0  0999 V2000
   -3.2651   -0.5763    0.0395 C   0  0  0  0  0  0  0  0  0  0  0  0
   -1.8728   -0.7456   -0.0250 C   0  0  0  0  0  0  0  0  0  0  0  0
   -1.0626    0.3932    0.0030 C   0  0  0  0  0  0  0  0  0  0  0  0
   -1.6630    1.6384    0.0371 C   0  0  0  0  0  3  0  0  0  0  0  0
   -2.9946    1.7839    0.0575 N   0  0  0  0  0  0  0  0  0  0  0  0
   -3.8156    0.7245    0.0705 C   0  0  0  0  0  0  0  0  0  0  0  0
   -5.2871    0.9162    0.1155 C   0  0  0  0  0  0  0  0  0  0  0  0
   -5.6363    1.4774   -0.7501 H   0  0  0  0  0  0  0  0  0  0  0  0
   -5.5835    1.4576    1.0129 H   0  0  0  0  0  0  0  0  0  0  0  0
   -5.7701   -0.0569    0.1191 H   0  0  0  0  0  0  0  0  0  0  0  0
   -3.5562    3.1171    0.0786 C   0  0  0  0  0  0  0  0  0  0  0  0
   -4.2000    3.2670   -0.7884 H   0  0  0  0  0  0  0  0  0  0  0  0
   -2.7589    3.8556    0.0614 H   0  0  0  0  0  0  0  0  0  0  0  0
   -4.1545    3.2593    0.9789 H   0  0  0  0  0  0  0  0  0  0  0  0
   -1.0629    2.5345    0.0547 H   0  0  0  0  0  0  0  0  0  0  0  0
    0.4101    0.3206    0.0186 C   0  0  0  0  0  0  0  0  0  0  0  0
    1.0786   -0.2773    1.0778 C   0  0  0  0  0  0  0  0  0  0  0  0
    2.4612   -0.3215    1.1091 C   0  0  0  0  0  0  0  0  0  0  0  0
    3.1992    0.2395    0.0768 C   0  0  0  0  0  0  0  0  0  0  0  0
    2.5339    0.8538   -0.9781 C   0  0  0  0  0  0  0  0  0  0  0  0
    1.1537    0.9011   -1.0018 C   0  0  0  0  0  0  0  0  0  0  0  0
    0.6507    1.3662   -1.8344 H   0  0  0  0  0  0  0  0  0  0  0  0
    3.0654    1.3027   -1.8007 H   0  0  0  0  0  0  0  0  0  0  0  0
    4.6806    0.2026    0.0579 N   0  0  0  0  0  4  0  0  0  0  0  0
    5.2557   -0.4830    1.2336 C   0  0  0  0  0  0  0  0  0  0  0  0
    6.3417   -0.4751    1.1527 H   0  0  0  0  0  0  0  0  0  0  0  0
    4.9209   -1.5181    1.2714 H   0  0  0  0  0  0  0  0  0  0  0  0
    4.9740    0.0319    2.1501 H   0  0  0  0  0  0  0  0  0  0  0  0
    5.2006    1.5896    0.0428 C   0  0  0  0  0  0  0  0  0  0  0  0
    4.8656    2.1203   -0.8445 H   0  0  0  0  0  0  0  0  0  0  0  0
    6.2891    1.5719    0.0494 H   0  0  0  0  0  0  0  0  0  0  0  0
    4.8446    2.1207    0.9242 H   0  0  0  0  0  0  0  0  0  0  0  0
    5.1267   -0.5228   -1.1539 C   0  0  0  0  0  0  0  0  0  0  0  0
    4.8179   -0.0010   -2.0558 H   0  0  0  0  0  0  0  0  0  0  0  0
    6.2121   -0.6080   -1.1521 H   0  0  0  0  0  0  0  0  0  0  0  0
    4.6876   -1.5196   -1.1642 H   0  0  0  0  0  0  0  0  0  0  0  0
    2.9212   -0.8072    1.9510 H   0  0  0  0  0  0  0  0  0  0  0  0
    0.5140   -0.7248    1.8810 H   0  0  0  0  0  0  0  0  0  0  0  0
   -1.3027   -2.1585   -0.2312 C   0  0  0  0  0  0  0  0  0  0  0  0
   -2.0911   -3.1085    0.0275 O   0  0  0  0  0  1  0  0  0  0  0  0
   -0.1507   -2.2526   -0.6657 O   0  0  0  0  0  0  0  0  0  0  0  0
   -4.0970   -1.6104    0.0707 O   0  0  0  0  0  0  0  0  0  0  0  0
   -3.5027   -2.4363    0.0783 H   0  0  0  0  0  0  0  0  0  0  0  0
  1  6  2  0  0  0  0
  1 42  1  0  0  0  0
  2  3  2  0  0  0  0
  2  1  1  0  0  0  0
  3 16  1  0  0  0  0
  3  4  1  0  0  0  0
  4 15  1  0  0  0  0
  4  5  1  0  0  0  0
  5  6  1  0  0  0  0
  5 11  1  0  0  0  0
  6  7  1  0  0  0  0
  7 10  1  0  0  0  0
  7  9  1  0  0  0  0
  8  7  1  0  0  0  0
 11 14  1  0  0  0  0
 12 11  1  0  0  0  0
 13 11  1  0  0  0  0
 16 17  1  0  0  0  0
 17 18  2  0  0  0  0
 17 38  1  0  0  0  0
 18 37  1  0  0  0  0
 19 18  1  0  0  0  0
 20 19  2  0  0  0  0
 21 20  1  0  0  0  0
 21 16  2  0  0  0  0
 22 21  1  0  0  0  0
 23 20  1  0  0  0  0
 24 19  1  0  0  0  0
 24 25  1  0  0  0  0
 25 27  1  0  0  0  0
 25 28  1  0  0  0  0
 26 25  1  0  0  0  0
 29 31  1  0  0  0  0
 29 24  1  0  0  0  0
 29 32  1  0  0  0  0
 30 29  1  0  0  0  0
 33 35  1  0  0  0  0
 33 24  1  0  0  0  0
 34 33  1  0  0  0  0
 36 33  1  0  0  0  0
 39  2  1  0  0  0  0
 39 40  1  0  0  0  0
 41 39  2  0  0  0  0
 42 43  1  0  0  0  0
M  END
>  <target>  (36)
-1.14

$$$$
-70.52688656
 OpenBabel07082014033D

 36 37  0  0  0  0  0  0  0  0999 V2000
   -3.7267   -0.8307    0.1136 C   0  0  0  0  0  0  0  0  0  0  0  0
   -2.3412   -0.7267   -0.0761 C   0  0  0  0  0  0  0  0  0  0  0  0
   -1.7518    0.5431   -0.0573 C   0  0  0  0  0  0  0  0  0  0  0  0
   -2.5837    1.6471    0.0487 C   0  0  0  0  0  3  0  0  0  0  0  0
   -3.9139    1.5324    0.1447 N   0  0  0  0  0  0  0  0  0  0  0  0
   -4.5153    0.3334    0.2014 C   0  0  0  0  0  0  0  0  0  0  0  0
   -5.9910    0.2397    0.3523 C   0  0  0  0  0  0  0  0  0  0  0  0
   -6.2708   -0.8089    0.3882 H   0  0  0  0  0  0  0  0  0  0  0  0
   -6.4992    0.7115   -0.4870 H   0  0  0  0  0  0  0  0  0  0  0  0
   -6.3197    0.7247    1.2698 H   0  0  0  0  0  0  0  0  0  0  0  0
   -4.7219    2.7312    0.2182 C   0  0  0  0  0  0  0  0  0  0  0  0
   -5.4430    2.7447   -0.5990 H   0  0  0  0  0  0  0  0  0  0  0  0
   -5.2643    2.7599    1.1634 H   0  0  0  0  0  0  0  0  0  0  0  0
   -4.0844    3.6082    0.1465 H   0  0  0  0  0  0  0  0  0  0  0  0
   -2.1618    2.6390    0.0650 H   0  0  0  0  0  0  0  0  0  0  0  0
   -0.2984    0.7261   -0.0887 C   0  0  0  0  0  0  0  0  0  0  0  0
    0.2942    1.7039   -0.8837 C   0  0  0  0  0  0  0  0  0  0  0  0
    1.6645    1.8638   -0.8991 C   0  0  0  0  0  0  0  0  0  0  0  0
    2.4784    1.0631   -0.0964 C   0  0  0  0  0  0  0  0  0  0  0  0
    1.8855    0.1028    0.7221 C   0  0  0  0  0  0  0  0  0  0  0  0
    0.5193   -0.0695    0.7134 C   0  0  0  0  0  0  0  0  0  0  0  0
    0.0760   -0.8289    1.3434 H   0  0  0  0  0  0  0  0  0  0  0  0
    2.5292   -0.5075    1.3338 H   0  0  0  0  0  0  0  0  0  0  0  0
    3.8467    1.2291   -0.0459 N   0  0  0  0  0  0  0  0  0  0  0  0
    4.2495    1.7509   -0.8068 H   0  0  0  0  0  0  0  0  0  0  0  0
    4.7720   -0.1882    0.1723 S   0  0  0  0  0  0  0  0  0  0  0  0
    4.7736   -0.4754    1.6012 O   0  0  0  0  0  1  0  0  0  0  0  0
    6.0815    0.2232   -0.3298 O   0  0  0  0  0  1  0  0  0  0  0  0
    4.1511   -1.2354   -0.6349 O   0  0  0  0  0  1  0  0  0  0  0  0
    2.1209    2.6025   -1.5404 H   0  0  0  0  0  0  0  0  0  0  0  0
   -0.3158    2.3124   -1.5333 H   0  0  0  0  0  0  0  0  0  0  0  0
   -1.5816   -2.0082   -0.4446 C   0  0  0  0  0  0  0  0  0  0  0  0
   -2.0161   -3.0646    0.0900 O   0  0  0  0  0  1  0  0  0  0  0  0
   -0.6893   -1.9135   -1.2965 O   0  0  0  0  0  0  0  0  0  0  0  0
   -4.3350   -2.0146    0.2102 O   0  0  0  0  0  0  0  0  0  0  0  0
   -3.6042   -2.7018    0.2118 H   0  0  0  0  0  0  0  0  0  0  0  0
  1  6  2  0  0  0  0
  1 35  1  0  0  0  0
  2  3  2  0  0  0  0
  2  1  1  0  0  0  0
  3  4  1  0  0  0  0
  4 15  1  0  0  0  0
  4  5  1  0  0  0  0
  5  6  1  0  0  0  0
  5 11  1  0  0  0  0
  6  7  1  0  0  0  0
  7  8  1  0  0  0  0
  7 10  1  0  0  0  0
  9  7  1  0  0  0  0
 11 13  1  0  0  0  0
 12 11  1  0  0  0  0
 14 11  1  0  0  0  0
 16  3  1  0  0  0  0
 16 21  1  0  0  0  0
 17 16  2  0  0  0  0
 18 17  1  0  0  0  0
 18 19  2  0  0  0  0
 19 24  1  0  0  0  0
 19 20  1  0  0  0  0
 20 23  1  0  0  0  0
 21 20  2  0  0  0  0
 21 22  1  0  0  0  0
 24 26  1  0  0  0  0
 25 24  1  0  0  0  0
 26 27  1  0  0  0  0
 28 26  1  0  0  0  0
 29 26  1  0  0  0  0
 30 18  1  0  0  0  0
 31 17  1  0  0  0  0
 32  2  1  0  0  0  0
 32 33  1  0  0  0  0
 34 32  2  0  0  0  0
 35 36  1  0  0  0  0
M  END
>  <target>  (37)
-1.24

$$$$
-70.43073963
 OpenBabel07082014033D

 37 38  0  0  0  0  0  0  0  0999 V2000
    3.7967    0.7975   -0.1496 C   0  0  0  0  0  0  0  0  0  0  0  0
    2.4156    0.7282    0.0816 C   0  0  0  0  0  0  0  0  0  0  0  0
    1.7950   -0.5273    0.0871 C   0  0  0  0  0  0  0  0  0  0  0  0
    2.5979   -1.6514   -0.0344 C   0  0  0  0  0  3  0  0  0  0  0  0
    3.9268   -1.5693   -0.1702 N   0  0  0  0  0  0  0  0  0  0  0  0
    4.5546   -0.3855   -0.2538 C   0  0  0  0  0  0  0  0  0  0  0  0
    6.0267   -0.3282   -0.4521 C   0  0  0  0  0  0  0  0  0  0  0  0
    6.5505   -0.8103    0.3716 H   0  0  0  0  0  0  0  0  0  0  0  0
    6.3135   -0.8226   -1.3787 H   0  0  0  0  0  0  0  0  0  0  0  0
    6.3303    0.7134   -0.5003 H   0  0  0  0  0  0  0  0  0  0  0  0
    4.7038   -2.7875   -0.2598 C   0  0  0  0  0  0  0  0  0  0  0  0
    5.4463   -2.8147    0.5375 H   0  0  0  0  0  0  0  0  0  0  0  0
    4.0477   -3.6487   -0.1664 H   0  0  0  0  0  0  0  0  0  0  0  0
    5.2191   -2.8330   -1.2193 H   0  0  0  0  0  0  0  0  0  0  0  0
    2.1528   -2.6333   -0.0305 H   0  0  0  0  0  0  0  0  0  0  0  0
    0.3402   -0.6756    0.1573 C   0  0  0  0  0  0  0  0  0  0  0  0
   -0.2549   -1.6405    0.9673 C   0  0  0  0  0  0  0  0  0  0  0  0
   -1.6262   -1.7700    1.0168 C   0  0  0  0  0  0  0  0  0  0  0  0
   -2.4448   -0.9490    0.2376 C   0  0  0  0  0  0  0  0  0  0  0  0
   -1.8486   -0.0031   -0.5961 C   0  0  0  0  0  0  0  0  0  0  0  0
   -0.4803    0.1399   -0.6215 C   0  0  0  0  0  0  0  0  0  0  0  0
   -0.0371    0.8895   -1.2634 H   0  0  0  0  0  0  0  0  0  0  0  0
   -2.4851    0.6301   -1.1937 H   0  0  0  0  0  0  0  0  0  0  0  0
   -3.8110   -1.1064    0.2328 N   0  0  0  0  0  0  0  0  0  0  0  0
   -4.9224    0.1585   -0.1267 P   0  0  2  0  0  0  0  0  0  0  0  0
   -4.4232    1.4904    0.3214 O   0  0  0  0  0  0  0  0  0  0  0  0
   -6.2560   -0.3339    0.3403 O   0  0  0  0  0  1  0  0  0  0  0  0
   -4.9009    0.1449   -1.7642 O   0  0  0  0  0  0  0  0  0  0  0  0
   -5.4267   -0.5970   -2.0730 H   0  0  0  0  0  0  0  0  0  0  0  0
   -4.1840   -1.7231    0.9390 H   0  0  0  0  0  0  0  0  0  0  0  0
   -2.0827   -2.4983    1.6711 H   0  0  0  0  0  0  0  0  0  0  0  0
    0.3575   -2.2641    1.6004 H   0  0  0  0  0  0  0  0  0  0  0  0
    1.6994    2.0288    0.4676 C   0  0  0  0  0  0  0  0  0  0  0  0
    0.8282    1.9586    1.3436 O   0  0  0  0  0  1  0  0  0  0  0  0
    2.1453    3.0738   -0.0804 O   0  0  0  0  0  0  0  0  0  0  0  0
    4.4304    1.9662   -0.2705 O   0  0  0  0  0  0  0  0  0  0  0  0
    3.7159    2.6707   -0.2522 H   0  0  0  0  0  0  0  0  0  0  0  0
  1  2  1  0  0  0  0
  2  3  2  0  0  0  0
  2 33  1  0  0  0  0
  3 16  1  0  0  0  0
  4 15  1  0  0  0  0
  4  3  1  0  0  0  0
  5  4  1  0  0  0  0
  6  5  1  0  0  0  0
  6  1  2  0  0  0  0
  7  6  1  0  0  0  0
  7  8  1  0  0  0  0
  9  7  1  0  0  0  0
 10  7  1  0  0  0  0
 11  5  1  0  0  0  0
 11 13  1  0  0  0  0
 11 12  1  0  0  0  0
 14 11  1  0  0  0  0
 16 17  1  0  0  0  0
 17 18  2  0  0  0  0
 17 32  1  0  0  0  0
 18 31  1  0  0  0  0
 19 18  1  0  0  0  0
 20 19  2  0  0  0  0
 21 20  1  0  0  0  0
 21 16  2  0  0  0  0
 22 21  1  0  0  0  0
 23 20  1  0  0  0  0
 24 19  1  0  0  0  0
 24 30  1  0  0  0  0
 25 24  1  0  0  0  0
 25 26  2  1  0  0  0
 25 27  1  0  0  0  0
 28 25  1  0  0  0  0
 29 28  1  0  0  0  0
 33 34  1  0  0  0  0
 35 33  2  0  0  0  0
 36 37  1  0  0  0  0
 36  1  1  0  0  0  0
M  END
>  <target>  (38)
-1.25

$$$$
-54.82289332
 OpenBabel07082014033D

 31 32  0  0  1  0  0  0  0  0999 V2000
   -2.6952   -0.6064   -0.1142 C   0  0  0  0  0  0  0  0  0  0  0  0
   -1.3105   -0.7260    0.0423 C   0  0  0  0  0  0  0  0  0  0  0  0
   -0.5224    0.4423    0.0505 C   0  0  0  0  0  0  0  0  0  0  0  0
   -1.1902    1.6617    0.0325 C   0  0  0  0  0  3  0  0  0  0  0  0
   -2.5215    1.7546   -0.0264 N   0  0  0  0  0  0  0  0  0  0  0  0
   -3.3029    0.6635   -0.1290 C   0  0  0  0  0  0  0  0  0  0  0  0
   -4.7799    0.8031   -0.2462 C   0  0  0  0  0  0  0  0  0  0  0  0
   -5.1972    1.2928    0.6321 H   0  0  0  0  0  0  0  0  0  0  0  0
   -5.0487    1.3841   -1.1265 H   0  0  0  0  0  0  0  0  0  0  0  0
   -5.2131   -0.1887   -0.3330 H   0  0  0  0  0  0  0  0  0  0  0  0
   -3.1403    3.0639   -0.0189 C   0  0  0  0  0  0  0  0  0  0  0  0
   -3.8381    3.1401    0.8145 H   0  0  0  0  0  0  0  0  0  0  0  0
   -2.3755    3.8290    0.0840 H   0  0  0  0  0  0  0  0  0  0  0  0
   -3.6849    3.2252   -0.9491 H   0  0  0  0  0  0  0  0  0  0  0  0
   -0.6277    2.5811    0.0480 H   0  0  0  0  0  0  0  0  0  0  0  0
    0.9274    0.4026    0.0104 C   0  0  1  0  0  3  0  0  0  0  0  0
    1.5870   -0.5774   -0.7422 C   0  0  0  0  0  0  0  0  0  0  0  0
    2.9542   -0.6161   -0.8157 C   0  0  0  0  0  0  0  0  0  0  0  0
    3.7464    0.3151   -0.1209 C   0  0  0  0  0  0  0  0  0  0  0  0
    3.0814    1.2976    0.6335 C   0  0  0  0  0  0  0  0  0  0  0  0
    1.7127    1.3450    0.6876 C   0  0  0  0  0  0  0  0  0  0  0  0
    1.2374    2.0917    1.3081 H   0  0  0  0  0  0  0  0  0  0  0  0
    3.6821    2.0109    1.1821 H   0  0  0  0  0  0  0  0  0  0  0  0
    5.4529    0.2573   -0.1961 S   0  0  0  0  0  0  0  0  0  0  0  0
    3.4500   -1.3745   -1.4100 H   0  0  0  0  0  0  0  0  0  0  0  0
    1.0040   -1.3071   -1.2931 H   0  0  0  0  0  0  0  0  0  0  0  0
   -0.7662   -2.1173    0.3634 C   0  0  0  0  0  0  0  0  0  0  0  0
   -1.3475   -3.0786   -0.2151 O   0  0  0  0  0  0  0  0  0  0  0  0
    0.1145   -2.2029    1.2319 O   0  0  0  0  0  1  0  0  0  0  0  0
   -3.4828   -1.6834   -0.2414 O   0  0  0  0  0  0  0  0  0  0  0  0
   -2.8629   -2.4688   -0.2893 H   0  0  0  0  0  0  0  0  0  0  0  0
  1  2  1  0  0  0  0
  2  3  2  0  0  0  0
  2 27  1  0  0  0  0
  4 15  1  0  0  0  0
  4  3  1  0  0  0  0
  5 11  1  0  0  0  0
  5  4  1  0  0  0  0
  6  1  2  0  0  0  0
  6  5  1  0  0  0  0
  7  6  1  0  0  0  0
  7  8  1  0  0  0  0
  9  7  1  0  0  0  0
 10  7  1  0  0  0  0
 11 13  1  0  0  0  0
 11 12  1  0  0  0  0
 14 11  1  0  0  0  0
 16  3  1  6  0  0  0
 16 21  1  0  0  0  0
 17 16  1  0  0  0  0
 18 17  2  0  0  0  0
 18 19  1  0  0  0  0
 19 20  1  0  0  0  0
 20 21  2  0  0  0  0
 20 23  1  0  0  0  0
 21 22  1  0  0  0  0
 24 19  2  0  0  0  0
 25 18  1  0  0  0  0
 26 17  1  0  0  0  0
 27 29  1  0  0  0  0
 28 27  2  0  0  0  0
 30  1  1  0  0  0  0
 31 30  1  0  0  0  0
M  END
>  <target>  (39)
-1.28

$$$$
-58.17784453
 OpenBabel07082014033D

 35 36  0  0  0  0  0  0  0  0999 V2000
   -3.0100   -0.6555    0.0900 C   0  0  0  0  0  0  0  0  0  0  0  0
   -1.6179   -0.7409   -0.0625 C   0  0  0  0  0  0  0  0  0  0  0  0
   -0.8671    0.4402   -0.0317 C   0  0  0  0  0  0  0  0  0  0  0  0
   -1.5426    1.6460    0.0644 C   0  0  0  0  0  3  0  0  0  0  0  0
   -2.8775    1.7126    0.1381 N   0  0  0  0  0  0  0  0  0  0  0  0
   -3.6353    0.6059    0.1701 C   0  0  0  0  0  0  0  0  0  0  0  0
   -5.1127    0.7106    0.2876 C   0  0  0  0  0  0  0  0  0  0  0  0
   -5.5337    1.2571   -0.5548 H   0  0  0  0  0  0  0  0  0  0  0  0
   -5.5346   -0.2901    0.3024 H   0  0  0  0  0  0  0  0  0  0  0  0
   -5.3955    1.2252    1.2046 H   0  0  0  0  0  0  0  0  0  0  0  0
   -3.5161    3.0095    0.2086 C   0  0  0  0  0  0  0  0  0  0  0  0
   -2.7643    3.7932    0.1658 H   0  0  0  0  0  0  0  0  0  0  0  0
   -4.2070    3.1314   -0.6257 H   0  0  0  0  0  0  0  0  0  0  0  0
   -4.0760    3.1023    1.1394 H   0  0  0  0  0  0  0  0  0  0  0  0
   -0.9931    2.5735    0.0906 H   0  0  0  0  0  0  0  0  0  0  0  0
    0.6002    0.4432   -0.0541 C   0  0  0  0  0  0  0  0  0  0  0  0
    1.3006    1.3070   -0.8952 C   0  0  0  0  0  0  0  0  0  0  0  0
    2.6778    1.3131   -0.9000 C   0  0  0  0  0  0  0  0  0  0  0  0
    3.3878    0.4646   -0.0527 C   0  0  0  0  0  0  0  0  0  0  0  0
    2.6974   -0.3847    0.8028 C   0  0  0  0  0  0  0  0  0  0  0  0
    1.3170   -0.3935    0.7949 C   0  0  0  0  0  0  0  0  0  0  0  0
    0.7865   -1.0597    1.4608 H   0  0  0  0  0  0  0  0  0  0  0  0
    3.2188   -1.0469    1.4744 H   0  0  0  0  0  0  0  0  0  0  0  0
    5.1453    0.5608   -0.1389 S   0  0  0  0  0  0  0  0  0  0  0  0
    5.7243   -0.7609    0.9637 C   0  0  0  0  0  0  0  0  0  0  0  0
    5.4405   -0.5403    1.9881 H   0  0  0  0  0  0  0  0  0  0  0  0
    5.3210   -1.7137    0.6340 H   0  0  0  0  0  0  0  0  0  0  0  0
    6.8056   -0.7621    0.8704 H   0  0  0  0  0  0  0  0  0  0  0  0
    3.2228    1.9673   -1.5629 H   0  0  0  0  0  0  0  0  0  0  0  0
    0.7632    1.9480   -1.5766 H   0  0  0  0  0  0  0  0  0  0  0  0
   -1.0162   -2.1146   -0.3952 C   0  0  0  0  0  0  0  0  0  0  0  0
   -1.6542   -3.1075    0.0497 O   0  0  0  0  0  1  0  0  0  0  0  0
   -0.0150   -2.1409   -1.1199 O   0  0  0  0  0  0  0  0  0  0  0  0
   -3.7772   -1.7426    0.1585 O   0  0  0  0  0  0  0  0  0  0  0  0
   -3.1427   -2.5269    0.1554 H   0  0  0  0  0  0  0  0  0  0  0  0
  1 34  1  0  0  0  0
  1  6  2  0  0  0  0
  2  3  2  0  0  0  0
  2  1  1  0  0  0  0
  3  4  1  0  0  0  0
  4 15  1  0  0  0  0
  4  5  1  0  0  0  0
  5  6  1  0  0  0  0
  5 11  1  0  0  0  0
  6  7  1  0  0  0  0
  7  9  1  0  0  0  0
  7 10  1  0  0  0  0
  8  7  1  0  0  0  0
 11 14  1  0  0  0  0
 12 11  1  0  0  0  0
 13 11  1  0  0  0  0
 16  3  1  0  0  0  0
 16 21  1  0  0  0  0
 17 16  2  0  0  0  0
 18 17  1  0  0  0  0
 18 19  2  0  0  0  0
 19 20  1  0  0  0  0
 20 23  1  0  0  0  0
 21 20  2  0  0  0  0
 21 22  1  0  0  0  0
 24 19  1  0  0  0  0
 24 25  1  0  0  0  0
 25 26  1  0  0  0  0
 27 25  1  0  0  0  0
 28 25  1  0  0  0  0
 29 18  1  0  0  0  0
 30 17  1  0  0  0  0
 31  2  1  0  0  0  0
 31 32  1  0  0  0  0
 33 31  2  0  0  0  0
 35 34  1  0  0  0  0
M  END
>  <target>  (40)
-1.2

$$$$
-61.73662768
 OpenBabel07082014033D

 35 36  0  0  0  0  0  0  0  0999 V2000
   -3.0346   -0.5852    0.0565 C   0  0  0  0  0  0  0  0  0  0  0  0
   -1.6434   -0.7349   -0.0525 C   0  0  0  0  0  0  0  0  0  0  0  0
   -0.8426    0.4113   -0.0140 C   0  0  0  0  0  0  0  0  0  0  0  0
   -1.4627    1.6472    0.0545 C   0  0  0  0  0  3  0  0  0  0  0  0
   -2.7950    1.7754    0.0946 N   0  0  0  0  0  0  0  0  0  0  0  0
   -3.6028    0.7046    0.1120 C   0  0  0  0  0  0  0  0  0  0  0  0
   -5.0763    0.8772    0.1895 C   0  0  0  0  0  0  0  0  0  0  0  0
   -5.3596    1.4062    1.0981 H   0  0  0  0  0  0  0  0  0  0  0  0
   -5.5441   -0.1031    0.1942 H   0  0  0  0  0  0  0  0  0  0  0  0
   -5.4492    1.4409   -0.6642 H   0  0  0  0  0  0  0  0  0  0  0  0
   -3.3750    3.1004    0.1415 C   0  0  0  0  0  0  0  0  0  0  0  0
   -3.9580    3.2229    1.0545 H   0  0  0  0  0  0  0  0  0  0  0  0
   -4.0342    3.2501   -0.7137 H   0  0  0  0  0  0  0  0  0  0  0  0
   -2.5870    3.8486    0.1192 H   0  0  0  0  0  0  0  0  0  0  0  0
   -0.8714    2.5486    0.0840 H   0  0  0  0  0  0  0  0  0  0  0  0
    0.6267    0.3518   -0.0005 C   0  0  0  0  0  0  0  0  0  0  0  0
    1.3767    1.1179   -0.8866 C   0  0  0  0  0  0  0  0  0  0  0  0
    2.7573    1.0800   -0.8438 C   0  0  0  0  0  0  0  0  0  0  0  0
    3.4372    0.2845    0.0786 C   0  0  0  0  0  0  0  0  0  0  0  0
    2.6673   -0.4719    0.9640 C   0  0  0  0  0  0  0  0  0  0  0  0
    1.2878   -0.4379    0.9344 C   0  0  0  0  0  0  0  0  0  0  0  0
    0.7133   -1.0304    1.6333 H   0  0  0  0  0  0  0  0  0  0  0  0
    3.1585   -1.0910    1.7018 H   0  0  0  0  0  0  0  0  0  0  0  0
    5.0309    0.2259    0.1123 B   0  0  0  0  0  0  0  0  0  0  0  0
    5.8025    1.3112   -0.1252 O   0  0  0  0  0  0  0  0  0  0  0  0
    5.3424    2.1350   -0.2936 H   0  0  0  0  0  0  0  0  0  0  0  0
    5.7043   -0.9171    0.3841 O   0  0  0  0  0  0  0  0  0  0  0  0
    5.1718   -1.7000    0.5253 H   0  0  0  0  0  0  0  0  0  0  0  0
    3.3206    1.6636   -1.5574 H   0  0  0  0  0  0  0  0  0  0  0  0
    0.8762    1.7180   -1.6315 H   0  0  0  0  0  0  0  0  0  0  0  0
   -1.0863   -2.1371   -0.3399 C   0  0  0  0  0  0  0  0  0  0  0  0
   -0.0398   -2.2154   -0.9925 O   0  0  0  0  0  0  0  0  0  0  0  0
   -1.7978   -3.0966    0.0661 O   0  0  0  0  0  1  0  0  0  0  0  0
   -3.8518   -1.6349    0.1076 O   0  0  0  0  0  0  0  0  0  0  0  0
   -3.2517   -2.4478    0.1253 H   0  0  0  0  0  0  0  0  0  0  0  0
  1 34  1  0  0  0  0
  1  6  2  0  0  0  0
  2  3  2  0  0  0  0
  2  1  1  0  0  0  0
  3 16  1  0  0  0  0
  3  4  1  0  0  0  0
  4 15  1  0  0  0  0
  4  5  1  0  0  0  0
  5  6  1  0  0  0  0
  5 11  1  0  0  0  0
  6  7  1  0  0  0  0
  7  9  1  0  0  0  0
  7  8  1  0  0  0  0
 10  7  1  0  0  0  0
 11 12  1  0  0  0  0
 13 11  1  0  0  0  0
 14 11  1  0  0  0  0
 16 21  1  0  0  0  0
 17 18  1  0  0  0  0
 17 16  2  0  0  0  0
 18 19  2  0  0  0  0
 19 24  1  0  0  0  0
 19 20  1  0  0  0  0
 20 23  1  0  0  0  0
 21 20  2  0  0  0  0
 21 22  1  0  0  0  0
 24 27  1  0  0  0  0
 25 24  1  0  0  0  0
 26 25  1  0  0  0  0
 27 28  1  0  0  0  0
 29 18  1  0  0  0  0
 30 17  1  0  0  0  0
 31  2  1  0  0  0  0
 31 33  1  0  0  0  0
 32 31  2  0  0  0  0
 34 35  1  0  0  0  0
M  END
>  <target>  (41)
-1.16

$$$$
-52.04100974
 OpenBabel07082014033D

 30 31  0  0  0  0  0  0  0  0999 V2000
   -1.9857   -0.6862    0.0527 C   0  0  0  0  0  0  0  0  0  0  0  0
   -0.5846   -0.7592   -0.0107 C   0  0  0  0  0  0  0  0  0  0  0  0
    0.1427    0.4331    0.0424 C   0  0  0  0  0  0  0  0  0  0  0  0
   -0.5451    1.6339    0.0557 C   0  0  0  0  0  3  0  0  0  0  0  0
   -1.8814    1.6861    0.0447 N   0  0  0  0  0  0  0  0  0  0  0  0
   -2.6267    0.5699    0.0664 C   0  0  0  0  0  0  0  0  0  0  0  0
   -4.1089    0.6592    0.0961 C   0  0  0  0  0  0  0  0  0  0  0  0
   -4.5210   -0.3453    0.1244 H   0  0  0  0  0  0  0  0  0  0  0  0
   -4.4866    1.1691   -0.7888 H   0  0  0  0  0  0  0  0  0  0  0  0
   -4.4482    1.2049    0.9751 H   0  0  0  0  0  0  0  0  0  0  0  0
   -2.5364    2.9761    0.0259 C   0  0  0  0  0  0  0  0  0  0  0  0
   -3.1488    3.1002    0.9194 H   0  0  0  0  0  0  0  0  0  0  0  0
   -3.1803    3.0556   -0.8501 H   0  0  0  0  0  0  0  0  0  0  0  0
   -1.7902    3.7653   -0.0085 H   0  0  0  0  0  0  0  0  0  0  0  0
    0.0071    2.5599    0.0563 H   0  0  0  0  0  0  0  0  0  0  0  0
    1.6141    0.4757    0.0953 C   0  0  0  0  0  0  0  0  0  0  0  0
    2.1937    1.4220   -0.6391 N   0  0  0  0  0  0  0  0  0  0  0  0
    3.5124    1.5063   -0.6274 C   0  0  0  0  0  0  0  0  0  0  0  0
    4.3248    0.6721    0.1244 C   0  0  0  0  0  0  0  0  0  0  0  0
    3.7178   -0.2858    0.9228 C   0  0  0  0  0  0  0  0  0  0  0  0
    2.3381   -0.3850    0.9172 C   0  0  0  0  0  0  0  0  0  0  0  0
    1.8268   -1.1133    1.5282 H   0  0  0  0  0  0  0  0  0  0  0  0
    4.3080   -0.9466    1.5401 H   0  0  0  0  0  0  0  0  0  0  0  0
    5.3975    0.7724    0.0933 H   0  0  0  0  0  0  0  0  0  0  0  0
    3.9296    2.2841   -1.2525 H   0  0  0  0  0  0  0  0  0  0  0  0
    0.0524   -2.1296   -0.2925 C   0  0  0  0  0  0  0  0  0  0  0  0
    1.1015   -2.1453   -0.9470 O   0  0  0  0  0  0  0  0  0  0  0  0
   -0.6016   -3.1257    0.1156 O   0  0  0  0  0  1  0  0  0  0  0  0
   -2.7444   -1.7793    0.0938 O   0  0  0  0  0  0  0  0  0  0  0  0
   -2.1077   -2.5593    0.1346 H   0  0  0  0  0  0  0  0  0  0  0  0
  1  6  2  0  0  0  0
  1 29  1  0  0  0  0
  2  3  2  0  0  0  0
  2  1  1  0  0  0  0
  3  4  1  0  0  0  0
  3 16  1  0  0  0  0
  4 15  1  0  0  0  0
  5  4  1  0  0  0  0
  5  6  1  0  0  0  0
  6  7  1  0  0  0  0
  7  8  1  0  0  0  0
  7 10  1  0  0  0  0
  9  7  1  0  0  0  0
 11  5  1  0  0  0  0
 11 12  1  0  0  0  0
 13 11  1  0  0  0  0
 14 11  1  0  0  0  0
 16 21  1  0  0  0  0
 17 18  1  0  0  0  0
 17 16  2  0  0  0  0
 18 19  2  0  0  0  0
 19 20  1  0  0  0  0
 20 23  1  0  0  0  0
 21 20  2  0  0  0  0
 21 22  1  0  0  0  0
 24 19  1  0  0  0  0
 25 18  1  0  0  0  0
 26  2  1  0  0  0  0
 26 28  1  0  0  0  0
 27 26  2  0  0  0  0
 29 30  1  0  0  0  0
M  END
>  <target>  (42)
-1.16

$$$$
-52.03960552
 OpenBabel07082014033D

 30 31  0  0  0  0  0  0  0  0999 V2000
   -1.9993   -0.6956   -0.0253 C   0  0  0  0  0  0  0  0  0  0  0  0
   -0.5975   -0.7484    0.0211 C   0  0  0  0  0  0  0  0  0  0  0  0
    0.1174    0.4523   -0.0392 C   0  0  0  0  0  0  0  0  0  0  0  0
   -0.5864    1.6436   -0.0716 C   0  0  0  0  0  3  0  0  0  0  0  0
   -1.9253    1.6777   -0.0572 N   0  0  0  0  0  0  0  0  0  0  0  0
   -2.6566    0.5536   -0.0482 C   0  0  0  0  0  0  0  0  0  0  0  0
   -4.1398    0.6228   -0.0616 C   0  0  0  0  0  0  0  0  0  0  0  0
   -4.4980    1.1335   -0.9542 H   0  0  0  0  0  0  0  0  0  0  0  0
   -4.5386   -0.3875   -0.0518 H   0  0  0  0  0  0  0  0  0  0  0  0
   -4.5138    1.1575    0.8101 H   0  0  0  0  0  0  0  0  0  0  0  0
   -2.5976    2.9592   -0.0691 C   0  0  0  0  0  0  0  0  0  0  0  0
   -3.2272    3.0449   -0.9551 H   0  0  0  0  0  0  0  0  0  0  0  0
   -1.8637    3.7608   -0.0748 H   0  0  0  0  0  0  0  0  0  0  0  0
   -3.2279    3.0591    0.8148 H   0  0  0  0  0  0  0  0  0  0  0  0
   -0.0604    2.5842   -0.1140 H   0  0  0  0  0  0  0  0  0  0  0  0
    1.5855    0.4892   -0.0908 C   0  0  0  0  0  0  0  0  0  0  0  0
    2.2956   -0.2101   -1.0630 C   0  0  0  0  0  0  0  0  0  0  0  0
    3.6754   -0.1250   -1.0741 C   0  0  0  0  0  0  0  0  0  0  0  0
    4.2968    0.6655   -0.1176 C   0  0  0  0  0  0  0  0  0  0  0  0
    3.6332    1.3403    0.8062 N   0  0  0  0  0  0  0  0  0  0  0  0
    2.3163    1.2524    0.8180 C   0  0  0  0  0  0  0  0  0  0  0  0
    1.8196    1.8024    1.6062 H   0  0  0  0  0  0  0  0  0  0  0  0
    5.3730    0.7678   -0.0876 H   0  0  0  0  0  0  0  0  0  0  0  0
    4.2566   -0.6591   -1.8085 H   0  0  0  0  0  0  0  0  0  0  0  0
    1.7688   -0.8099   -1.7919 H   0  0  0  0  0  0  0  0  0  0  0  0
    0.0774   -2.1076    0.2607 C   0  0  0  0  0  0  0  0  0  0  0  0
   -0.5984   -3.1163   -0.0781 O   0  0  0  0  0  0  0  0  0  0  0  0
    1.1852   -2.1078    0.8095 O   0  0  0  0  0  1  0  0  0  0  0  0
   -2.7432   -1.7969   -0.0461 O   0  0  0  0  0  0  0  0  0  0  0  0
   -2.0902   -2.5690   -0.0826 H   0  0  0  0  0  0  0  0  0  0  0  0
  1  2  1  0  0  0  0
  2 26  1  0  0  0  0
  3  2  2  0  0  0  0
  4  5  1  0  0  0  0
  4  3  1  0  0  0  0
  5  6  1  0  0  0  0
  6  1  2  0  0  0  0
  7  9  1  0  0  0  0
  7  6  1  0  0  0  0
  7 10  1  0  0  0  0
  8  7  1  0  0  0  0
 11  5  1  0  0  0  0
 11 14  1  0  0  0  0
 12 11  1  0  0  0  0
 13 11  1  0  0  0  0
 15  4  1  0  0  0  0
 16  3  1  0  0  0  0
 16 21  1  0  0  0  0
 17 16  2  0  0  0  0
 18 17  1  0  0  0  0
 18 19  2  0  0  0  0
 19 23  1  0  0  0  0
 19 20  1  0  0  0  0
 20 21  2  0  0  0  0
 21 22  1  0  0  0  0
 24 18  1  0  0  0  0
 25 17  1  0  0  0  0
 26 28  1  0  0  0  0
 27 26  2  0  0  0  0
 29  1  1  0  0  0  0
 30 29  1  0  0  0  0
M  END
>  <target>  (43)
-1.16

$$$$
-52.03908452
 OpenBabel07082014033D

 30 31  0  0  0  0  0  0  0  0999 V2000
   -2.0059   -0.7017    0.0292 C   0  0  0  0  0  0  0  0  0  0  0  0
   -0.6041   -0.7457   -0.0283 C   0  0  0  0  0  0  0  0  0  0  0  0
    0.1030    0.4587    0.0087 C   0  0  0  0  0  0  0  0  0  0  0  0
   -0.6043    1.6464    0.0374 C   0  0  0  0  0  3  0  0  0  0  0  0
   -1.9441    1.6728    0.0427 N   0  0  0  0  0  0  0  0  0  0  0  0
   -2.6691    0.5447    0.0510 C   0  0  0  0  0  0  0  0  0  0  0  0
   -4.1522    0.6059    0.0817 C   0  0  0  0  0  0  0  0  0  0  0  0
   -4.5025    1.1235    0.9734 H   0  0  0  0  0  0  0  0  0  0  0  0
   -4.5456   -0.4066    0.0862 H   0  0  0  0  0  0  0  0  0  0  0  0
   -4.5396    1.1303   -0.7905 H   0  0  0  0  0  0  0  0  0  0  0  0
   -2.6235    2.9503    0.0544 C   0  0  0  0  0  0  0  0  0  0  0  0
   -3.2676    3.0392   -0.8208 H   0  0  0  0  0  0  0  0  0  0  0  0
   -1.8947    3.7565    0.0432 H   0  0  0  0  0  0  0  0  0  0  0  0
   -3.2403    3.0392    0.9491 H   0  0  0  0  0  0  0  0  0  0  0  0
   -0.0829    2.5903    0.0616 H   0  0  0  0  0  0  0  0  0  0  0  0
    1.5761    0.5025    0.0498 C   0  0  0  0  0  0  0  0  0  0  0  0
    2.2756   -0.0805    1.1019 C   0  0  0  0  0  0  0  0  0  0  0  0
    3.6565    0.0140    1.1084 C   0  0  0  0  0  0  0  0  0  0  0  0
    4.3527    0.6376    0.1711 N   0  0  0  0  0  0  0  0  0  0  0  0
    3.6834    1.1995   -0.8221 C   0  0  0  0  0  0  0  0  0  0  0  0
    2.3027    1.1729   -0.9288 C   0  0  0  0  0  0  0  0  0  0  0  0
    1.8061    1.6334   -1.7678 H   0  0  0  0  0  0  0  0  0  0  0  0
    4.2900    1.6979   -1.5663 H   0  0  0  0  0  0  0  0  0  0  0  0
    4.2386   -0.4325    1.9038 H   0  0  0  0  0  0  0  0  0  0  0  0
    1.7536   -0.6069    1.8863 H   0  0  0  0  0  0  0  0  0  0  0  0
    0.0878   -2.0993   -0.2470 C   0  0  0  0  0  0  0  0  0  0  0  0
   -0.5898   -3.1134    0.0707 O   0  0  0  0  0  1  0  0  0  0  0  0
    1.2132   -2.0883   -0.7585 O   0  0  0  0  0  0  0  0  0  0  0  0
   -2.7419   -1.8068    0.0620 O   0  0  0  0  0  0  0  0  0  0  0  0
   -2.0829   -2.5753    0.0907 H   0  0  0  0  0  0  0  0  0  0  0  0
  1  6  2  0  0  0  0
  1 29  1  0  0  0  0
  2  3  2  0  0  0  0
  2  1  1  0  0  0  0
  3  4  1  0  0  0  0
  3 16  1  0  0  0  0
  4  5  1  0  0  0  0
  4 15  1  0  0  0  0
  5  6  1  0  0  0  0
  5 11  1  0  0  0  0
  6  7  1  0  0  0  0
  7  9  1  0  0  0  0
  7  8  1  0  0  0  0
 10  7  1  0  0  0  0
 11 14  1  0  0  0  0
 12 11  1  0  0  0  0
 13 11  1  0  0  0  0
 16 17  1  0  0  0  0
 17 18  2  0  0  0  0
 17 25  1  0  0  0  0
 18 24  1  0  0  0  0
 19 18  1  0  0  0  0
 20 19  2  0  0  0  0
 21 20  1  0  0  0  0
 21 16  2  0  0  0  0
 22 21  1  0  0  0  0
 23 20  1  0  0  0  0
 26  2  1  0  0  0  0
 26 27  1  0  0  0  0
 28 26  2  0  0  0  0
 29 30  1  0  0  0  0
M  END
>  <target>  (44)
-1.12

$$$$
-46.99159747
 OpenBabel07082014033D

 23 23  0  0  0  0  0  0  0  0999 V2000
   -0.9892   -1.0547    0.0085 C   0  0  0  0  0  0  0  0  0  0  0  0
    0.3226   -0.5579   -0.0242 C   0  0  0  0  0  0  0  0  0  0  0  0
    0.5193    0.8196    0.0051 C   0  0  0  0  0  0  0  0  0  0  0  0
   -0.5827    1.6473    0.0055 C   0  0  0  0  0  3  0  0  0  0  0  0
   -1.8346    1.1623   -0.0210 N   0  0  0  0  0  0  0  0  0  0  0  0
   -2.0754   -0.1585   -0.0084 C   0  0  0  0  0  0  0  0  0  0  0  0
   -3.4733   -0.6666   -0.0106 C   0  0  0  0  0  0  0  0  0  0  0  0
   -4.0015   -0.3448   -0.9063 H   0  0  0  0  0  0  0  0  0  0  0  0
   -4.0183   -0.3066    0.8600 H   0  0  0  0  0  0  0  0  0  0  0  0
   -3.4450   -1.7519    0.0128 H   0  0  0  0  0  0  0  0  0  0  0  0
   -2.9525    2.0825   -0.0511 C   0  0  0  0  0  0  0  0  0  0  0  0
   -2.5806    3.1035   -0.0669 H   0  0  0  0  0  0  0  0  0  0  0  0
   -3.5762    1.9406    0.8315 H   0  0  0  0  0  0  0  0  0  0  0  0
   -3.5545    1.9057   -0.9423 H   0  0  0  0  0  0  0  0  0  0  0  0
   -0.4547    2.7179    0.0147 H   0  0  0  0  0  0  0  0  0  0  0  0
    1.9275    1.4362    0.1373 C   0  0  0  0  0  0  0  0  0  0  0  0
    2.3412    2.0928   -0.8318 O   0  0  0  0  0  0  0  0  0  0  0  0
    2.4471    1.2804    1.2584 O   0  0  0  0  0  1  0  0  0  0  0  0
    1.4931   -1.5291   -0.1404 C   0  0  0  0  0  0  0  0  0  0  0  0
    1.2586   -2.7145    0.2292 O   0  0  0  0  0  1  0  0  0  0  0  0
    2.5504   -1.1098   -0.6304 O   0  0  0  0  0  0  0  0  0  0  0  0
   -1.2447   -2.3627    0.0547 O   0  0  0  0  0  0  0  0  0  0  0  0
   -0.3447   -2.8091    0.1470 H   0  0  0  0  0  0  0  0  0  0  0  0
  1 22  1  0  0  0  0
  2  3  2  0  0  0  0
  2  1  1  0  0  0  0
  3  4  1  0  0  0  0
  3 16  1  0  0  0  0
  4 15  1  0  0  0  0
  5  6  1  0  0  0  0
  5  4  1  0  0  0  0
  6  1  2  0  0  0  0
  7  6  1  0  0  0  0
  7 10  1  0  0  0  0
  7  9  1  0  0  0  0
  8  7  1  0  0  0  0
 11  5  1  0  0  0  0
 11 13  1  0  0  0  0
 12 11  1  0  0  0  0
 14 11  1  0  0  0  0
 16 18  1  0  0  0  0
 17 16  2  0  0  0  0
 19  2  1  0  0  0  0
 19 20  1  0  0  0  0
 21 19  2  0  0  0  0
 22 23  1  0  0  0  0
M  END
>  <target>  (45)
-1.26

$$$$
-46.25050925
 OpenBabel07082014033D

 26 26  0  0  0  0  0  0  0  0999 V2000
   -1.0447   -1.0633    0.0065 C   0  0  0  0  0  0  0  0  0  0  0  0
    0.2628   -0.5791   -0.0155 C   0  0  0  0  0  0  0  0  0  0  0  0
    0.5157    0.7856   -0.0356 C   0  0  0  0  0  0  0  0  0  0  0  0
   -0.5558    1.6508   -0.0361 C   0  0  0  0  0  3  0  0  0  0  0  0
   -1.8172    1.1846   -0.0079 N   0  0  0  0  0  0  0  0  0  0  0  0
   -2.1028   -0.1279    0.0128 C   0  0  0  0  0  0  0  0  0  0  0  0
   -3.5110   -0.5936    0.0413 C   0  0  0  0  0  0  0  0  0  0  0  0
   -4.0292   -0.2194    0.9231 H   0  0  0  0  0  0  0  0  0  0  0  0
   -3.5206   -1.6797    0.0611 H   0  0  0  0  0  0  0  0  0  0  0  0
   -4.0533   -0.2528   -0.8396 H   0  0  0  0  0  0  0  0  0  0  0  0
   -2.9097    2.1341   -0.0003 C   0  0  0  0  0  0  0  0  0  0  0  0
   -3.5512    1.9759   -0.8676 H   0  0  0  0  0  0  0  0  0  0  0  0
   -2.5197    3.1481   -0.0288 H   0  0  0  0  0  0  0  0  0  0  0  0
   -3.5090    2.0077    0.9020 H   0  0  0  0  0  0  0  0  0  0  0  0
   -0.4147    2.7191   -0.0644 H   0  0  0  0  0  0  0  0  0  0  0  0
    1.9599    1.2321   -0.0914 C   0  0  0  0  0  0  0  0  0  0  0  0
    2.4512    1.5891   -1.1493 O   0  0  0  0  0  0  0  0  0  0  0  0
    2.5302    1.5899    1.2603 C   0  0  0  0  0  0  0  0  0  0  0  0
    2.2326    0.8679    2.0137 H   0  0  0  0  0  0  0  0  0  0  0  0
    2.1509    2.5750    1.5294 H   0  0  0  0  0  0  0  0  0  0  0  0
    3.6129    1.6306    1.1961 H   0  0  0  0  0  0  0  0  0  0  0  0
    1.4831   -1.4725   -0.0151 C   0  0  0  0  0  0  0  0  0  0  0  0
    2.5659   -0.8496    0.0147 O   0  0  0  0  0  1  0  0  0  0  0  0
    1.2979   -2.7070   -0.0314 O   0  0  0  0  0  0  0  0  0  0  0  0
   -1.3083   -2.3647    0.0226 O   0  0  0  0  0  0  0  0  0  0  0  0
   -0.4337   -2.8428    0.0058 H   0  0  0  0  0  0  0  0  0  0  0  0
  1  6  2  0  0  0  0
  1 25  1  0  0  0  0
  2 22  1  0  0  0  0
  2  1  1  0  0  0  0
  3  2  2  0  0  0  0
  4  3  1  0  0  0  0
  4  5  1  0  0  0  0
  5 11  1  0  0  0  0
  5  6  1  0  0  0  0
  6  7  1  0  0  0  0
  7  9  1  0  0  0  0
  7  8  1  0  0  0  0
 10  7  1  0  0  0  0
 11 14  1  0  0  0  0
 12 11  1  0  0  0  0
 13 11  1  0  0  0  0
 15  4  1  0  0  0  0
 16  3  1  0  0  0  0
 16 18  1  0  0  0  0
 17 16  2  0  0  0  0
 18 20  1  0  0  0  0
 18 19  1  0  0  0  0
 21 18  1  0  0  0  0
 22 23  1  0  0  0  0
 24 22  2  0  0  0  0
 26 25  1  0  0  0  0
M  END
>  <target>  (46)
-1.37

$$$$
-44.57063724
 OpenBabel07082014033D

 25 25  0  0  0  0  0  0  0  0999 V2000
   -0.8991   -1.0285   -0.1256 C   0  0  0  0  0  0  0  0  0  0  0  0
    0.3645   -0.5014    0.1967 C   0  0  0  0  0  0  0  0  0  0  0  0
    0.4558    0.8686    0.4630 C   0  0  0  0  0  0  0  0  0  0  0  0
   -0.6937    1.6342    0.4396 C   0  0  0  0  0  3  0  0  0  0  0  0
   -1.8969    1.1054    0.1784 N   0  0  0  0  0  0  0  0  0  0  0  0
   -2.0395   -0.1941   -0.1121 C   0  0  0  0  0  0  0  0  0  0  0  0
   -3.3807   -0.7502   -0.4208 C   0  0  0  0  0  0  0  0  0  0  0  0
   -4.0609   -0.6163    0.4190 H   0  0  0  0  0  0  0  0  0  0  0  0
   -3.8142   -0.2601   -1.2914 H   0  0  0  0  0  0  0  0  0  0  0  0
   -3.2831   -1.8118   -0.6283 H   0  0  0  0  0  0  0  0  0  0  0  0
   -3.0634    1.9609    0.1968 C   0  0  0  0  0  0  0  0  0  0  0  0
   -2.7739    2.9775    0.4497 H   0  0  0  0  0  0  0  0  0  0  0  0
   -3.5436    1.9607   -0.7821 H   0  0  0  0  0  0  0  0  0  0  0  0
   -3.7803    1.5996    0.9344 H   0  0  0  0  0  0  0  0  0  0  0  0
   -0.6537    2.6936    0.6397 H   0  0  0  0  0  0  0  0  0  0  0  0
    1.7728    1.5525    0.7230 C   0  0  0  0  0  0  0  0  0  0  0  0
    2.4338    1.7791   -0.5336 C   0  0  0  0  0  0  0  0  0  0  0  0
    2.9277    1.9639   -1.5497 N   0  0  0  0  0  0  0  0  0  0  0  0
    2.4149    0.8921    1.3146 H   0  0  0  0  0  0  0  0  0  0  0  0
    1.6357    2.5081    1.2313 H   0  0  0  0  0  0  0  0  0  0  0  0
    1.5523   -1.4790    0.3006 C   0  0  0  0  0  0  0  0  0  0  0  0
    1.4063   -2.5755   -0.2990 O   0  0  0  0  0  0  0  0  0  0  0  0
    2.5246   -1.1490    0.9904 O   0  0  0  0  0  1  0  0  0  0  0  0
   -1.0738   -2.3026   -0.4509 O   0  0  0  0  0  0  0  0  0  0  0  0
   -0.1456   -2.7093   -0.4837 H   0  0  0  0  0  0  0  0  0  0  0  0
  1  6  2  0  0  0  0
  1  2  1  0  0  0  0
  2 21  1  0  0  0  0
  2  3  2  0  0  0  0
  3 16  1  0  0  0  0
  4  3  1  0  0  0  0
  4 15  1  0  0  0  0
  5 11  1  0  0  0  0
  5  4  1  0  0  0  0
  6  5  1  0  0  0  0
  7  6  1  0  0  0  0
  7  8  1  0  0  0  0
  9  7  1  0  0  0  0
 10  7  1  0  0  0  0
 11 12  1  0  0  0  0
 11 14  1  0  0  0  0
 13 11  1  0  0  0  0
 16 20  1  0  0  0  0
 16 19  1  0  0  0  0
 17 16  1  0  0  0  0
 18 17  3  0  0  0  0
 21 23  1  0  0  0  0
 22 21  2  0  0  0  0
 24  1  1  0  0  0  0
 25 24  1  0  0  0  0
M  END
>  <target>  (47)
-1.2

$$$$
-50.16304937
 OpenBabel07082014033D

 26 26  0  0  0  0  0  0  0  0999 V2000
   -1.2318   -0.9480   -0.1045 C   0  0  0  0  0  0  0  0  0  0  0  0
    0.0540   -0.5646    0.3052 C   0  0  0  0  0  0  0  0  0  0  0  0
    0.2913    0.7914    0.5781 C   0  0  0  0  0  0  0  0  0  0  0  0
   -0.7760    1.6694    0.4943 C   0  0  0  0  0  3  0  0  0  0  0  0
   -2.0152    1.2701    0.1829 N   0  0  0  0  0  0  0  0  0  0  0  0
   -2.2781   -0.0071   -0.1358 C   0  0  0  0  0  0  0  0  0  0  0  0
   -3.6586   -0.4166   -0.5129 C   0  0  0  0  0  0  0  0  0  0  0  0
   -4.3542   -0.2380    0.3050 H   0  0  0  0  0  0  0  0  0  0  0  0
   -4.0017    0.1328   -1.3875 H   0  0  0  0  0  0  0  0  0  0  0  0
   -3.6508   -1.4774   -0.7441 H   0  0  0  0  0  0  0  0  0  0  0  0
   -3.0909    2.2396    0.1672 C   0  0  0  0  0  0  0  0  0  0  0  0
   -3.5139    2.3107   -0.8346 H   0  0  0  0  0  0  0  0  0  0  0  0
   -2.7086    3.2128    0.4629 H   0  0  0  0  0  0  0  0  0  0  0  0
   -3.8744    1.9345    0.8603 H   0  0  0  0  0  0  0  0  0  0  0  0
   -0.6272    2.7193    0.6913 H   0  0  0  0  0  0  0  0  0  0  0  0
    1.6564    1.2973    0.7841 C   0  0  0  0  0  0  0  0  0  0  0  0
    2.2025    0.7038    1.5159 H   0  0  0  0  0  0  0  0  0  0  0  0
    1.6942    2.3514    1.0531 H   0  0  0  0  0  0  0  0  0  0  0  0
    2.5098    1.1011   -0.5478 C   0  0  0  0  0  0  0  0  0  0  0  0
    3.5576    1.7631   -0.5888 O   0  0  0  0  0  1  0  0  0  0  0  0
    2.0597    0.3275   -1.4068 O   0  0  0  0  0  0  0  0  0  0  0  0
    1.1138   -1.6541    0.4670 C   0  0  0  0  0  0  0  0  0  0  0  0
    2.0092   -1.5000    1.3121 O   0  0  0  0  0  1  0  0  0  0  0  0
    0.9369   -2.6983   -0.2227 O   0  0  0  0  0  0  0  0  0  0  0  0
   -1.5122   -2.2034   -0.4670 O   0  0  0  0  0  0  0  0  0  0  0  0
   -0.6186   -2.6752   -0.4811 H   0  0  0  0  0  0  0  0  0  0  0  0
  1  2  1  0  0  0  0
  2 22  1  0  0  0  0
  2  3  2  0  0  0  0
  3 16  1  0  0  0  0
  4  3  1  0  0  0  0
  4 15  1  0  0  0  0
  5  4  1  0  0  0  0
  6  1  2  0  0  0  0
  6  5  1  0  0  0  0
  7  6  1  0  0  0  0
  7  8  1  0  0  0  0
  9  7  1  0  0  0  0
 10  7  1  0  0  0  0
 11  5  1  0  0  0  0
 11 13  1  0  0  0  0
 11 14  1  0  0  0  0
 12 11  1  0  0  0  0
 16 18  1  0  0  0  0
 16 17  1  0  0  0  0
 19 16  1  0  0  0  0
 20 19  1  0  0  0  0
 21 19  2  0  0  0  0
 22 23  1  0  0  0  0
 24 22  2  0  0  0  0
 25  1  1  0  0  0  0
 26 25  1  0  0  0  0
M  END
>  <target>  (48)
-1.24

$$$$
-55.35278031
 OpenBabel07082014033D

 27 27  0  0  0  0  0  0  0  0999 V2000
   -1.6922   -0.8615    0.1698 C   0  0  0  0  0  0  0  0  0  0  0  0
   -0.4086   -0.8329   -0.3988 C   0  0  0  0  0  0  0  0  0  0  0  0
    0.0633    0.3844   -0.9062 C   0  0  0  0  0  0  0  0  0  0  0  0
   -0.7753    1.4859   -0.8690 C   0  0  0  0  0  3  0  0  0  0  0  0
   -2.0170    1.4242   -0.3748 N   0  0  0  0  0  0  0  0  0  0  0  0
   -2.5015    0.2921    0.1568 C   0  0  0  0  0  0  0  0  0  0  0  0
   -3.8763    0.2594    0.7241 C   0  0  0  0  0  0  0  0  0  0  0  0
   -4.6162    0.4976   -0.0379 H   0  0  0  0  0  0  0  0  0  0  0  0
   -3.9759    0.9736    1.5392 H   0  0  0  0  0  0  0  0  0  0  0  0
   -4.0686   -0.7392    1.1046 H   0  0  0  0  0  0  0  0  0  0  0  0
   -2.8472    2.6100   -0.3917 C   0  0  0  0  0  0  0  0  0  0  0  0
   -3.7590    2.4148   -0.9563 H   0  0  0  0  0  0  0  0  0  0  0  0
   -2.3032    3.4291   -0.8536 H   0  0  0  0  0  0  0  0  0  0  0  0
   -3.1141    2.8919    0.6266 H   0  0  0  0  0  0  0  0  0  0  0  0
   -0.4273    2.4395   -1.2308 H   0  0  0  0  0  0  0  0  0  0  0  0
    1.4683    0.5682   -1.2695 C   0  0  0  0  0  0  0  0  0  0  0  0
    1.9427   -0.3062   -1.6910 H   0  0  0  0  0  0  0  0  0  0  0  0
    1.6928    1.4837   -1.7994 H   0  0  0  0  0  0  0  0  0  0  0  0
    2.2132    0.7673    0.4044 S   0  0  0  0  0  0  0  0  0  0  0  0
    1.5970    1.9907    0.9351 O   0  0  0  0  0  1  0  0  0  0  0  0
    1.8610   -0.4140    1.1950 O   0  0  0  0  0  1  0  0  0  0  0  0
    3.6557    0.9153    0.1880 O   0  0  0  0  0  1  0  0  0  0  0  0
    0.3982   -2.1365   -0.4459 C   0  0  0  0  0  0  0  0  0  0  0  0
    1.2654   -2.2729   -1.3208 O   0  0  0  0  0  0  0  0  0  0  0  0
    0.0410   -3.0303    0.3695 O   0  0  0  0  0  1  0  0  0  0  0  0
   -2.1903   -1.9605    0.7368 O   0  0  0  0  0  0  0  0  0  0  0  0
   -1.4229   -2.6224    0.7440 H   0  0  0  0  0  0  0  0  0  0  0  0
  1 26  1  0  0  0  0
  2  1  1  0  0  0  0
  3  4  1  0  0  0  0
  3  2  2  0  0  0  0
  4  5  1  0  0  0  0
  5  6  1  0  0  0  0
  6  1  2  0  0  0  0
  6  7  1  0  0  0  0
  7 10  1  0  0  0  0
  7  9  1  0  0  0  0
  8  7  1  0  0  0  0
 11  5  1  0  0  0  0
 11 14  1  0  0  0  0
 12 11  1  0  0  0  0
 13 11  1  0  0  0  0
 15  4  1  0  0  0  0
 16  3  1  0  0  0  0
 16 19  1  0  0  0  0
 17 16  1  0  0  0  0
 18 16  1  0  0  0  0
 19 20  1  0  0  0  0
 19 21  1  0  0  0  0
 22 19  1  0  0  0  0
 23  2  1  0  0  0  0
 23 25  1  0  0  0  0
 24 23  2  0  0  0  0
 26 27  1  0  0  0  0
M  END
>  <target>  (49)
-1.16

$$$$
-55.05279581
 OpenBabel07082014033D

 27 27  0  0  0  0  0  0  0  0999 V2000
   -1.7425   -0.7582   -0.2080 C   0  0  0  0  0  0  0  0  0  0  0  0
   -0.4791   -0.8741    0.3871 C   0  0  0  0  0  0  0  0  0  0  0  0
    0.1102    0.2750    0.9355 C   0  0  0  0  0  0  0  0  0  0  0  0
   -0.6331    1.4480    0.9280 C   0  0  0  0  0  3  0  0  0  0  0  0
   -1.8652    1.5207    0.4167 N   0  0  0  0  0  0  0  0  0  0  0  0
   -2.4443    0.4583   -0.1675 C   0  0  0  0  0  0  0  0  0  0  0  0
   -3.8095    0.5752   -0.7547 C   0  0  0  0  0  0  0  0  0  0  0  0
   -4.5362    0.8505    0.0068 H   0  0  0  0  0  0  0  0  0  0  0  0
   -3.8261    1.3232   -1.5448 H   0  0  0  0  0  0  0  0  0  0  0  0
   -4.0799   -0.3887   -1.1744 H   0  0  0  0  0  0  0  0  0  0  0  0
   -2.5857    2.7766    0.4699 C   0  0  0  0  0  0  0  0  0  0  0  0
   -2.8020    3.1210   -0.5408 H   0  0  0  0  0  0  0  0  0  0  0  0
   -3.5197    2.6399    1.0141 H   0  0  0  0  0  0  0  0  0  0  0  0
   -1.9725    3.5199    0.9716 H   0  0  0  0  0  0  0  0  0  0  0  0
   -0.1965    2.3523    1.3201 H   0  0  0  0  0  0  0  0  0  0  0  0
    1.5170    0.3392    1.2940 C   0  0  0  0  0  0  0  0  0  0  0  0
    1.7738    1.1612    1.9611 H   0  0  0  0  0  0  0  0  0  0  0  0
    1.9412   -0.5982    1.6386 H   0  0  0  0  0  0  0  0  0  0  0  0
    2.3050    0.7269   -0.4194 P   0  0  0  0  0  0  0  0  0  0  0  0
    1.6994    2.0743   -0.8035 O   0  0  0  0  0  1  0  0  0  0  0  0
    1.8723   -0.4092   -1.3422 O   0  0  0  0  0  0  0  0  0  0  0  0
    3.8081    0.7755   -0.1589 O   0  0  0  0  0  1  0  0  0  0  0  0
    0.1751   -2.2500    0.4275 C   0  0  0  0  0  0  0  0  0  0  0  0
    0.9197   -2.5354    1.3811 O   0  0  0  0  0  1  0  0  0  0  0  0
   -0.1847   -3.0634   -0.4711 O   0  0  0  0  0  0  0  0  0  0  0  0
   -2.3314   -1.7969   -0.8208 O   0  0  0  0  0  0  0  0  0  0  0  0
   -1.6215   -2.5115   -0.8526 H   0  0  0  0  0  0  0  0  0  0  0  0
  1  6  2  0  0  0  0
  1  2  1  0  0  0  0
  2 23  1  0  0  0  0
  2  3  2  0  0  0  0
  3 16  1  0  0  0  0
  4  3  1  0  0  0  0
  4 15  1  0  0  0  0
  5 11  1  0  0  0  0
  5  4  1  0  0  0  0
  6  5  1  0  0  0  0
  7  6  1  0  0  0  0
  7  8  1  0  0  0  0
  9  7  1  0  0  0  0
 10  7  1  0  0  0  0
 11 14  1  0  0  0  0
 11 13  1  0  0  0  0
 12 11  1  0  0  0  0
 16 18  1  0  0  0  0
 16 17  1  0  0  0  0
 19 22  1  0  0  0  0
 19 16  1  0  0  0  0
 20 19  1  0  0  0  0
 21 19  2  0  0  0  0
 23 24  1  0  0  0  0
 25 23  2  0  0  0  0
 26  1  1  0  0  0  0
 27 26  1  0  0  0  0
M  END
>  <target>  (50)
-1.37

$$$$
-49.71321919
 OpenBabel07082014033D

 28 28  0  0  0  0  0  0  0  0999 V2000
    1.4985    0.7744    0.0877 C   0  0  0  0  0  0  0  0  0  0  0  0
    0.1295    0.7988   -0.2379 C   0  0  0  0  0  0  0  0  0  0  0  0
   -0.4852   -0.4087   -0.5893 C   0  0  0  0  0  0  0  0  0  0  0  0
    0.2616   -1.5734   -0.5260 C   0  0  0  0  0  3  0  0  0  0  0  0
    1.5419   -1.5868   -0.1412 N   0  0  0  0  0  0  0  0  0  0  0  0
    2.1913   -0.4526    0.1568 C   0  0  0  0  0  0  0  0  0  0  0  0
    3.6245   -0.4887    0.5456 C   0  0  0  0  0  0  0  0  0  0  0  0
    3.9647    0.5260    0.7306 H   0  0  0  0  0  0  0  0  0  0  0  0
    4.2317   -0.9251   -0.2458 H   0  0  0  0  0  0  0  0  0  0  0  0
    3.7683   -1.0781    1.4498 H   0  0  0  0  0  0  0  0  0  0  0  0
    2.2451   -2.8488   -0.0668 C   0  0  0  0  0  0  0  0  0  0  0  0
    1.5682   -3.6620   -0.3156 H   0  0  0  0  0  0  0  0  0  0  0  0
    2.6317   -3.0029    0.9406 H   0  0  0  0  0  0  0  0  0  0  0  0
    3.0825   -2.8530   -0.7651 H   0  0  0  0  0  0  0  0  0  0  0  0
   -0.2004   -2.5172   -0.7703 H   0  0  0  0  0  0  0  0  0  0  0  0
   -1.9146   -0.5375   -1.0159 C   0  0  0  0  0  0  0  0  0  0  0  0
   -2.3186    0.4256   -1.3177 H   0  0  0  0  0  0  0  0  0  0  0  0
   -1.9970   -1.2564   -1.8306 H   0  0  0  0  0  0  0  0  0  0  0  0
   -2.7216   -1.0748    0.1751 C   0  0  0  0  0  0  0  0  0  0  0  0
   -2.9690   -2.2635    0.3051 O   0  0  0  0  0  0  0  0  0  0  0  0
   -3.0743   -0.1283    1.0419 N   0  0  0  0  0  0  0  0  0  0  0  0
   -3.6040   -0.3651    1.8646 H   0  0  0  0  0  0  0  0  0  0  0  0
   -2.7922    0.8332    0.8619 H   0  0  0  0  0  0  0  0  0  0  0  0
   -0.5935    2.1547   -0.1685 C   0  0  0  0  0  0  0  0  0  0  0  0
   -1.8127    2.1649    0.0602 O   0  0  0  0  0  1  0  0  0  0  0  0
    0.1327    3.1693   -0.3118 O   0  0  0  0  0  0  0  0  0  0  0  0
    2.1869    1.8830    0.3422 O   0  0  0  0  0  0  0  0  0  0  0  0
    1.5662    2.6510    0.1355 H   0  0  0  0  0  0  0  0  0  0  0  0
  1  6  2  0  0  0  0
  1 27  1  0  0  0  0
  2 24  1  0  0  0  0
  2  1  1  0  0  0  0
  3  4  1  0  0  0  0
  3  2  2  0  0  0  0
  4  5  1  0  0  0  0
  5 11  1  0  0  0  0
  5  6  1  0  0  0  0
  6  7  1  0  0  0  0
  7  8  1  0  0  0  0
  7 10  1  0  0  0  0
  9  7  1  0  0  0  0
 11 13  1  0  0  0  0
 12 11  1  0  0  0  0
 14 11  1  0  0  0  0
 15  4  1  0  0  0  0
 16  3  1  0  0  0  0
 16 19  1  0  0  0  0
 17 16  1  0  0  0  0
 18 16  1  0  0  0  0
 19 20  2  0  0  0  0
 19 21  1  0  0  0  0
 21 22  1  0  0  0  0
 23 21  1  0  0  0  0
 24 25  1  0  0  0  0
 26 24  2  0  0  0  0
 28 27  1  0  0  0  0
M  END
>  <target>  (51)
-1.19

$$$$
-47.73811494
 OpenBabel07082014033D

 28 28  0  0  0  0  0  0  0  0999 V2000
    1.2620    0.9308   -0.1457 C   0  0  0  0  0  0  0  0  0  0  0  0
   -0.0937    0.8765    0.2299 C   0  0  0  0  0  0  0  0  0  0  0  0
   -0.5904   -0.3320    0.7338 C   0  0  0  0  0  0  0  0  0  0  0  0
    0.2653   -1.4166    0.8061 C   0  0  0  0  0  3  0  0  0  0  0  0
    1.5375   -1.3624    0.3957 N   0  0  0  0  0  0  0  0  0  0  0  0
    2.0668   -0.2270   -0.0764 C   0  0  0  0  0  0  0  0  0  0  0  0
    3.4861   -0.1857   -0.5123 C   0  0  0  0  0  0  0  0  0  0  0  0
    4.1533   -0.4519    0.3059 H   0  0  0  0  0  0  0  0  0  0  0  0
    3.7229    0.8203   -0.8463 H   0  0  0  0  0  0  0  0  0  0  0  0
    3.6597   -0.8793   -1.3336 H   0  0  0  0  0  0  0  0  0  0  0  0
    2.3560   -2.5527    0.4679 C   0  0  0  0  0  0  0  0  0  0  0  0
    3.2112   -2.3806    1.1218 H   0  0  0  0  0  0  0  0  0  0  0  0
    2.7227   -2.8132   -0.5250 H   0  0  0  0  0  0  0  0  0  0  0  0
    1.7688   -3.3812    0.8551 H   0  0  0  0  0  0  0  0  0  0  0  0
   -0.0861   -2.3616    1.1889 H   0  0  0  0  0  0  0  0  0  0  0  0
   -2.0096   -0.5433    1.1760 C   0  0  0  0  0  0  0  0  0  0  0  0
   -2.0484   -1.3654    1.8914 H   0  0  0  0  0  0  0  0  0  0  0  0
   -2.3964    0.3639    1.6382 H   0  0  0  0  0  0  0  0  0  0  0  0
   -2.9153   -0.8623   -0.0315 C   0  0  0  0  0  0  0  0  0  0  0  0
   -2.3585   -1.8972   -0.8499 C   0  0  0  0  0  0  0  0  0  0  0  0
   -1.8839   -2.7194   -1.4917 N   0  0  0  0  0  0  0  0  0  0  0  0
   -3.9050   -1.1670    0.3137 H   0  0  0  0  0  0  0  0  0  0  0  0
   -3.0203    0.0456   -0.6330 H   0  0  0  0  0  0  0  0  0  0  0  0
   -0.9468    2.1456    0.0476 C   0  0  0  0  0  0  0  0  0  0  0  0
   -2.1778    2.0363    0.0458 O   0  0  0  0  0  1  0  0  0  0  0  0
   -0.3061    3.2203   -0.1137 O   0  0  0  0  0  0  0  0  0  0  0  0
    1.8344    2.0480   -0.5782 O   0  0  0  0  0  0  0  0  0  0  0  0
    1.1224    2.7702   -0.4840 H   0  0  0  0  0  0  0  0  0  0  0  0
  1  6  2  0  0  0  0
  1  2  1  0  0  0  0
  2  3  2  0  0  0  0
  3  4  1  0  0  0  0
  3 16  1  0  0  0  0
  4 15  1  0  0  0  0
  5 11  1  0  0  0  0
  5  4  1  0  0  0  0
  6  5  1  0  0  0  0
  7  6  1  0  0  0  0
  7  8  1  0  0  0  0
  9  7  1  0  0  0  0
 10  7  1  0  0  0  0
 11 14  1  0  0  0  0
 11 12  1  0  0  0  0
 13 11  1  0  0  0  0
 16 18  1  0  0  0  0
 16 17  1  0  0  0  0
 19 22  1  0  0  0  0
 19 16  1  0  0  0  0
 20 19  1  0  0  0  0
 21 20  3  0  0  0  0
 23 19  1  0  0  0  0
 24  2  1  0  0  0  0
 25 24  1  0  0  0  0
 26 24  2  0  0  0  0
 27 28  1  0  0  0  0
 27  1  1  0  0  0  0
M  END
>  <target>  (52)
-1.6

$$$$
-53.32450051
 OpenBabel07082014033D

 29 29  0  0  0  0  0  0  0  0999 V2000
   -1.2007   -1.0496   -0.0836 C   0  0  0  0  0  0  0  0  0  0  0  0
   -0.0058   -0.5717    0.4803 C   0  0  0  0  0  0  0  0  0  0  0  0
    0.0646    0.7796    0.8336 C   0  0  0  0  0  0  0  0  0  0  0  0
   -1.0681    1.5563    0.6771 C   0  0  0  0  0  3  0  0  0  0  0  0
   -2.2199    1.0694    0.2000 N   0  0  0  0  0  0  0  0  0  0  0  0
   -2.3206   -0.2060   -0.2000 C   0  0  0  0  0  0  0  0  0  0  0  0
   -3.6019   -0.7154   -0.7591 C   0  0  0  0  0  0  0  0  0  0  0  0
   -3.4700   -1.7588   -1.0286 H   0  0  0  0  0  0  0  0  0  0  0  0
   -4.4036   -0.6362   -0.0270 H   0  0  0  0  0  0  0  0  0  0  0  0
   -3.8849   -0.1550   -1.6481 H   0  0  0  0  0  0  0  0  0  0  0  0
   -3.3709    1.9412    0.0927 C   0  0  0  0  0  0  0  0  0  0  0  0
   -4.2004    1.5318    0.6688 H   0  0  0  0  0  0  0  0  0  0  0  0
   -3.1191    2.9268    0.4745 H   0  0  0  0  0  0  0  0  0  0  0  0
   -3.6753    2.0290   -0.9501 H   0  0  0  0  0  0  0  0  0  0  0  0
   -1.0458    2.6020    0.9413 H   0  0  0  0  0  0  0  0  0  0  0  0
    1.3290    1.4509    1.2713 C   0  0  0  0  0  0  0  0  0  0  0  0
    1.9918    0.7238    1.7379 H   0  0  0  0  0  0  0  0  0  0  0  0
    1.1074    2.2482    1.9841 H   0  0  0  0  0  0  0  0  0  0  0  0
    2.0365    2.0487    0.0452 C   0  0  0  0  0  0  0  0  0  0  0  0
    2.9933    2.4781    0.3436 H   0  0  0  0  0  0  0  0  0  0  0  0
    1.4101    2.8149   -0.4168 H   0  0  0  0  0  0  0  0  0  0  0  0
    2.3072    0.9502   -1.0264 C   0  0  0  0  0  0  0  0  0  0  0  0
    3.4719    0.5101   -1.1098 O   0  0  0  0  0  1  0  0  0  0  0  0
    1.3316    0.6140   -1.7339 O   0  0  0  0  0  0  0  0  0  0  0  0
    1.1320   -1.5758    0.6928 C   0  0  0  0  0  0  0  0  0  0  0  0
    1.9183   -1.3939    1.6341 O   0  0  0  0  0  1  0  0  0  0  0  0
    1.1261   -2.5830   -0.0678 O   0  0  0  0  0  0  0  0  0  0  0  0
   -1.3256   -2.3060   -0.5182 O   0  0  0  0  0  0  0  0  0  0  0  0
   -0.3951   -2.6929   -0.4734 H   0  0  0  0  0  0  0  0  0  0  0  0
  1  2  1  0  0  0  0
  2 25  1  0  0  0  0
  2  3  2  0  0  0  0
  3 16  1  0  0  0  0
  4  3  1  0  0  0  0
  4 15  1  0  0  0  0
  5  4  1  0  0  0  0
  6  1  2  0  0  0  0
  6  5  1  0  0  0  0
  7  6  1  0  0  0  0
  7  9  1  0  0  0  0
  8  7  1  0  0  0  0
 10  7  1  0  0  0  0
 11  5  1  0  0  0  0
 11 13  1  0  0  0  0
 11 12  1  0  0  0  0
 14 11  1  0  0  0  0
 16 17  1  0  0  0  0
 16 18  1  0  0  0  0
 19 20  1  0  0  0  0
 19 16  1  0  0  0  0
 21 19  1  0  0  0  0
 22 19  1  0  0  0  0
 23 22  1  0  0  0  0
 24 22  2  0  0  0  0
 25 26  1  0  0  0  0
 27 25  2  0  0  0  0
 28 29  1  0  0  0  0
 28  1  1  0  0  0  0
M  END
>  <target>  (53)
-1.32

$$$$
-58.51559018
 OpenBabel07082014033D

 30 30  0  0  0  0  0  0  0  0999 V2000
    1.6016   -0.8718   -0.3214 C   0  0  0  0  0  0  0  0  0  0  0  0
    0.4380   -0.9244    0.4663 C   0  0  0  0  0  0  0  0  0  0  0  0
    0.1007    0.2098    1.2070 C   0  0  0  0  0  0  0  0  0  0  0  0
    0.9758    1.2798    1.2142 C   0  0  0  0  0  3  0  0  0  0  0  0
    2.1092    1.2886    0.5066 N   0  0  0  0  0  0  0  0  0  0  0  0
    2.4378    0.2587   -0.2845 C   0  0  0  0  0  0  0  0  0  0  0  0
    3.6778    0.3135   -1.1055 C   0  0  0  0  0  0  0  0  0  0  0  0
    3.6439    1.1570   -1.7922 H   0  0  0  0  0  0  0  0  0  0  0  0
    3.7525   -0.6052   -1.6794 H   0  0  0  0  0  0  0  0  0  0  0  0
    4.5596    0.4099   -0.4745 H   0  0  0  0  0  0  0  0  0  0  0  0
    2.9725    2.4490    0.5602 C   0  0  0  0  0  0  0  0  0  0  0  0
    2.5839    3.1604    1.2837 H   0  0  0  0  0  0  0  0  0  0  0  0
    3.0116    2.9247   -0.4198 H   0  0  0  0  0  0  0  0  0  0  0  0
    3.9794    2.1497    0.8501 H   0  0  0  0  0  0  0  0  0  0  0  0
    0.7504    2.1609    1.7940 H   0  0  0  0  0  0  0  0  0  0  0  0
   -1.2152    0.3761    1.9076 C   0  0  0  0  0  0  0  0  0  0  0  0
   -2.0747    1.3158    1.0837 C   0  0  0  0  0  0  0  0  0  0  0  0
   -3.1251    1.2654    1.3425 H   0  0  0  0  0  0  0  0  0  0  0  0
   -1.7259    2.3425    1.0808 H   0  0  0  0  0  0  0  0  0  0  0  0
   -2.0061    0.8216   -0.6713 S   0  0  0  0  0  0  0  0  0  0  0  0
   -3.1254    1.5463   -1.2990 O   0  0  0  0  0  1  0  0  0  0  0  0
   -2.1701   -0.6333   -0.7510 O   0  0  0  0  0  1  0  0  0  0  0  0
   -0.7104    1.2868   -1.1923 O   0  0  0  0  0  1  0  0  0  0  0  0
   -1.0687    0.7733    2.9147 H   0  0  0  0  0  0  0  0  0  0  0  0
   -1.7050   -0.5939    1.9724 H   0  0  0  0  0  0  0  0  0  0  0  0
   -0.3591   -2.2352    0.4810 C   0  0  0  0  0  0  0  0  0  0  0  0
   -0.1642   -3.0137   -0.4942 O   0  0  0  0  0  0  0  0  0  0  0  0
   -1.0358   -2.5066    1.4832 O   0  0  0  0  0  1  0  0  0  0  0  0
    1.9591   -1.8786   -1.1204 O   0  0  0  0  0  0  0  0  0  0  0  0
    1.1812   -2.5325   -1.0729 H   0  0  0  0  0  0  0  0  0  0  0  0
  1  6  2  0  0  0  0
  1  2  1  0  0  0  0
  2 26  1  0  0  0  0
  2  3  2  0  0  0  0
  3  4  1  0  0  0  0
  3 16  1  0  0  0  0
  4 15  1  0  0  0  0
  5 11  1  0  0  0  0
  5  4  1  0  0  0  0
  6  5  1  0  0  0  0
  7 10  1  0  0  0  0
  7  6  1  0  0  0  0
  8  7  1  0  0  0  0
  9  7  1  0  0  0  0
 11 14  1  0  0  0  0
 11 12  1  0  0  0  0
 13 11  1  0  0  0  0
 16 25  1  0  0  0  0
 16 24  1  0  0  0  0
 17 18  1  0  0  0  0
 17 16  1  0  0  0  0
 19 17  1  0  0  0  0
 20 17  1  0  0  0  0
 21 20  1  0  0  0  0
 22 20  1  0  0  0  0
 23 20  1  0  0  0  0
 26 28  1  0  0  0  0
 27 26  2  0  0  0  0
 29 30  1  0  0  0  0
 29  1  1  0  0  0  0
M  END
>  <target>  (54)
-1.1

$$$$
-58.41755511
 OpenBabel07082014033D

 31 31  0  0  0  0  0  0  0  0999 V2000
    1.7775    0.9443    0.1816 C   0  0  0  0  0  0  0  0  0  0  0  0
    0.5855    0.6918   -0.5259 C   0  0  0  0  0  0  0  0  0  0  0  0
    0.3918   -0.5983   -1.0369 C   0  0  0  0  0  0  0  0  0  0  0  0
    1.3875   -1.5380   -0.8458 C   0  0  0  0  0  3  0  0  0  0  0  0
    2.5242   -1.2747   -0.1907 N   0  0  0  0  0  0  0  0  0  0  0  0
    2.7489   -0.0646    0.3359 C   0  0  0  0  0  0  0  0  0  0  0  0
    4.0148    0.2067    1.0683 C   0  0  0  0  0  0  0  0  0  0  0  0
    4.1141   -0.4559    1.9261 H   0  0  0  0  0  0  0  0  0  0  0  0
    4.8764    0.0655    0.4181 H   0  0  0  0  0  0  0  0  0  0  0  0
    4.0000    1.2343    1.4184 H   0  0  0  0  0  0  0  0  0  0  0  0
    3.5198   -2.3149   -0.0431 C   0  0  0  0  0  0  0  0  0  0  0  0
    3.1783   -3.2205   -0.5373 H   0  0  0  0  0  0  0  0  0  0  0  0
    3.6843   -2.5257    1.0135 H   0  0  0  0  0  0  0  0  0  0  0  0
    4.4610   -1.9931   -0.4885 H   0  0  0  0  0  0  0  0  0  0  0  0
    1.2616   -2.5388   -1.2285 H   0  0  0  0  0  0  0  0  0  0  0  0
   -0.8524   -1.0743   -1.7260 C   0  0  0  0  0  0  0  0  0  0  0  0
   -1.7879   -1.7256   -0.7099 C   0  0  0  0  0  0  0  0  0  0  0  0
   -2.3650   -0.6260    0.6741 P   0  0  1  0  0  0  0  0  0  0  0  0
   -3.2926   -1.4123    1.5491 O   0  0  0  0  0  1  0  0  0  0  0  0
   -1.2071    0.0529    1.3609 O   0  0  0  0  0  0  0  0  0  0  0  0
   -3.2880    0.4796   -0.1008 O   0  0  0  0  0  0  0  0  0  0  0  0
   -2.6908    1.0416   -0.6345 H   0  0  0  0  0  0  0  0  0  0  0  0
   -1.3075   -2.5711   -0.2127 H   0  0  0  0  0  0  0  0  0  0  0  0
   -2.6951   -2.0866   -1.1948 H   0  0  0  0  0  0  0  0  0  0  0  0
   -0.5895   -1.8130   -2.4876 H   0  0  0  0  0  0  0  0  0  0  0  0
   -1.3630   -0.2392   -2.2004 H   0  0  0  0  0  0  0  0  0  0  0  0
   -0.4212    1.8334   -0.6659 C   0  0  0  0  0  0  0  0  0  0  0  0
   -1.3811    1.7131   -1.4549 O   0  0  0  0  0  0  0  0  0  0  0  0
   -0.1921    2.8802   -0.0080 O   0  0  0  0  0  1  0  0  0  0  0  0
    2.0546    2.1287    0.7228 O   0  0  0  0  0  0  0  0  0  0  0  0
    1.2211    2.6868    0.5816 H   0  0  0  0  0  0  0  0  0  0  0  0
  1  6  2  0  0  0  0
  1 30  1  0  0  0  0
  2  1  1  0  0  0  0
  3  4  1  0  0  0  0
  3  2  2  0  0  0  0
  4  5  1  0  0  0  0
  5 11  1  0  0  0  0
  5  6  1  0  0  0  0
  6  7  1  0  0  0  0
  7 10  1  0  0  0  0
  7  8  1  0  0  0  0
  9  7  1  0  0  0  0
 11 13  1  0  0  0  0
 12 11  1  0  0  0  0
 14 11  1  0  0  0  0
 15  4  1  0  0  0  0
 16  3  1  0  0  0  0
 16 17  1  0  0  0  0
 17 23  1  0  0  0  0
 17 18  1  0  0  0  0
 18 20  2  1  0  0  0
 18 19  1  0  0  0  0
 21 18  1  0  0  0  0
 22 21  1  0  0  0  0
 24 17  1  0  0  0  0
 25 16  1  0  0  0  0
 26 16  1  0  0  0  0
 27  2  1  0  0  0  0
 27 29  1  0  0  0  0
 28 27  2  0  0  0  0
 31 30  1  0  0  0  0
M  END
>  <target>  (55)
-1.22

$$$$
-52.87742848
 OpenBabel07082014033D

 31 31  0  0  0  0  0  0  0  0999 V2000
   -1.2939   -1.0371   -0.0248 C   0  0  0  0  0  0  0  0  0  0  0  0
   -0.0710   -0.5372    0.4636 C   0  0  0  0  0  0  0  0  0  0  0  0
    0.0061    0.8313    0.7546 C   0  0  0  0  0  0  0  0  0  0  0  0
   -1.1209    1.6107    0.5681 C   0  0  0  0  0  3  0  0  0  0  0  0
   -2.2798    1.1160    0.1190 N   0  0  0  0  0  0  0  0  0  0  0  0
   -2.4033   -0.1803   -0.1892 C   0  0  0  0  0  0  0  0  0  0  0  0
   -3.6958   -0.7079   -0.6995 C   0  0  0  0  0  0  0  0  0  0  0  0
   -3.5893   -1.7716   -0.8907 H   0  0  0  0  0  0  0  0  0  0  0  0
   -4.4922   -0.5589    0.0278 H   0  0  0  0  0  0  0  0  0  0  0  0
   -3.9792   -0.2115   -1.6261 H   0  0  0  0  0  0  0  0  0  0  0  0
   -3.4136    2.0000   -0.0445 C   0  0  0  0  0  0  0  0  0  0  0  0
   -3.7314    2.0113   -1.0872 H   0  0  0  0  0  0  0  0  0  0  0  0
   -4.2468    1.6567    0.5687 H   0  0  0  0  0  0  0  0  0  0  0  0
   -3.1412    3.0083    0.2555 H   0  0  0  0  0  0  0  0  0  0  0  0
   -1.0897    2.6672    0.7843 H   0  0  0  0  0  0  0  0  0  0  0  0
    1.2565    1.5380    1.1888 C   0  0  0  0  0  0  0  0  0  0  0  0
    1.8791    0.8609    1.7697 H   0  0  0  0  0  0  0  0  0  0  0  0
    0.9965    2.4059    1.7951 H   0  0  0  0  0  0  0  0  0  0  0  0
    2.0418    2.0189   -0.0472 C   0  0  0  0  0  0  0  0  0  0  0  0
    2.4284    0.8389   -0.9196 C   0  0  0  0  0  0  0  0  0  0  0  0
    1.6461    0.3331   -1.7148 O   0  0  0  0  0  0  0  0  0  0  0  0
    3.7097    0.4428   -0.8105 N   0  0  0  0  0  0  0  0  0  0  0  0
    3.9688   -0.4239   -1.2559 H   0  0  0  0  0  0  0  0  0  0  0  0
    4.2457    0.7097   -0.0017 H   0  0  0  0  0  0  0  0  0  0  0  0
    2.9325    2.5544    0.2753 H   0  0  0  0  0  0  0  0  0  0  0  0
    1.4107    2.6812   -0.6418 H   0  0  0  0  0  0  0  0  0  0  0  0
    1.0959   -1.5219    0.6419 C   0  0  0  0  0  0  0  0  0  0  0  0
    0.9079   -2.6951    0.2114 O   0  0  0  0  0  0  0  0  0  0  0  0
    2.1312   -1.1412    1.2012 O   0  0  0  0  0  1  0  0  0  0  0  0
   -1.4647   -2.3142   -0.3480 O   0  0  0  0  0  0  0  0  0  0  0  0
   -0.5474   -2.7445   -0.2075 H   0  0  0  0  0  0  0  0  0  0  0  0
  1  2  1  0  0  0  0
  2 27  1  0  0  0  0
  2  3  2  0  0  0  0
  3 16  1  0  0  0  0
  4  3  1  0  0  0  0
  4 15  1  0  0  0  0
  5  4  1  0  0  0  0
  6  1  2  0  0  0  0
  6  5  1  0  0  0  0
  7  6  1  0  0  0  0
  7  9  1  0  0  0  0
  8  7  1  0  0  0  0
 10  7  1  0  0  0  0
 11  5  1  0  0  0  0
 11 14  1  0  0  0  0
 11 13  1  0  0  0  0
 12 11  1  0  0  0  0
 16 17  1  0  0  0  0
 16 18  1  0  0  0  0
 19 25  1  0  0  0  0
 19 16  1  0  0  0  0
 20 22  1  0  0  0  0
 20 19  1  0  0  0  0
 21 20  2  0  0  0  0
 22 24  1  0  0  0  0
 23 22  1  0  0  0  0
 26 19  1  0  0  0  0
 27 29  1  0  0  0  0
 28 27  2  0  0  0  0
 30 31  1  0  0  0  0
 30  1  1  0  0  0  0
M  END
>  <target>  (56)
-1.25

$$$$
-50.90748336
 OpenBabel07082014033D

 31 31  0  0  0  0  0  0  0  0999 V2000
   -1.1523   -1.0763    0.0332 C   0  0  0  0  0  0  0  0  0  0  0  0
    0.1582   -0.8123   -0.4062 C   0  0  0  0  0  0  0  0  0  0  0  0
    0.4327    0.4544   -0.9349 C   0  0  0  0  0  0  0  0  0  0  0  0
   -0.5894    1.3865   -0.9713 C   0  0  0  0  0  3  0  0  0  0  0  0
   -1.8090    1.1421   -0.4820 N   0  0  0  0  0  0  0  0  0  0  0  0
   -2.1255   -0.0564    0.0236 C   0  0  0  0  0  0  0  0  0  0  0  0
   -3.4895   -0.3089    0.5554 C   0  0  0  0  0  0  0  0  0  0  0  0
   -3.7088    0.3614    1.3849 H   0  0  0  0  0  0  0  0  0  0  0  0
   -4.2442   -0.1613   -0.2153 H   0  0  0  0  0  0  0  0  0  0  0  0
   -3.5447   -1.3341    0.9093 H   0  0  0  0  0  0  0  0  0  0  0  0
   -2.8051    2.1907   -0.5018 C   0  0  0  0  0  0  0  0  0  0  0  0
   -2.3879    3.0877   -0.9516 H   0  0  0  0  0  0  0  0  0  0  0  0
   -3.6747    1.8717   -1.0765 H   0  0  0  0  0  0  0  0  0  0  0  0
   -3.1237    2.4181    0.5156 H   0  0  0  0  0  0  0  0  0  0  0  0
   -0.4161    2.3641   -1.3927 H   0  0  0  0  0  0  0  0  0  0  0  0
    1.7710    0.8810   -1.4661 C   0  0  0  0  0  0  0  0  0  0  0  0
    1.6354    1.3377   -2.4482 H   0  0  0  0  0  0  0  0  0  0  0  0
    2.4153    0.0099   -1.5705 H   0  0  0  0  0  0  0  0  0  0  0  0
    2.4509    1.8969   -0.5376 C   0  0  0  0  0  0  0  0  0  0  0  0
    3.4273    2.1413   -0.9557 H   0  0  0  0  0  0  0  0  0  0  0  0
    1.8614    2.8134   -0.4767 H   0  0  0  0  0  0  0  0  0  0  0  0
    2.6586    1.3249    0.8733 C   0  0  0  0  0  0  0  0  0  0  0  0
    1.4387    1.3085    1.6240 C   0  0  0  0  0  0  0  0  0  0  0  0
    0.4597    1.3296    2.2209 N   0  0  0  0  0  0  0  0  0  0  0  0
    3.3887    1.9191    1.4275 H   0  0  0  0  0  0  0  0  0  0  0  0
    3.0201    0.2943    0.7980 H   0  0  0  0  0  0  0  0  0  0  0  0
    1.1994   -1.9330   -0.2338 C   0  0  0  0  0  0  0  0  0  0  0  0
    2.3941   -1.6281   -0.1320 O   0  0  0  0  0  1  0  0  0  0  0  0
    0.7365   -3.1039   -0.1707 O   0  0  0  0  0  0  0  0  0  0  0  0
   -1.5268   -2.2746    0.4739 O   0  0  0  0  0  0  0  0  0  0  0  0
   -0.7338   -2.8835    0.3132 H   0  0  0  0  0  0  0  0  0  0  0  0
  1 30  1  0  0  0  0
  2 27  1  0  0  0  0
  2  1  1  0  0  0  0
  3  2  2  0  0  0  0
  4  3  1  0  0  0  0
  4  5  1  0  0  0  0
  5  6  1  0  0  0  0
  6  1  2  0  0  0  0
  6  7  1  0  0  0  0
  7 10  1  0  0  0  0
  7  8  1  0  0  0  0
  9  7  1  0  0  0  0
 11  5  1  0  0  0  0
 11 14  1  0  0  0  0
 12 11  1  0  0  0  0
 13 11  1  0  0  0  0
 15  4  1  0  0  0  0
 16  3  1  0  0  0  0
 16 19  1  0  0  0  0
 17 16  1  0  0  0  0
 18 16  1  0  0  0  0
 19 21  1  0  0  0  0
 19 22  1  0  0  0  0
 20 19  1  0  0  0  0
 22 25  1  0  0  0  0
 22 23  1  0  0  0  0
 23 24  3  0  0  0  0
 26 22  1  0  0  0  0
 27 29  2  0  0  0  0
 27 28  1  0  0  0  0
 31 30  1  0  0  0  0
M  END
>  <target>  (57)
-1.3

$$$$
-56.49094889
 OpenBabel07082014033D

 32 32  0  0  1  0  0  0  0  0999 V2000
   -1.0628   -1.1729   -0.0304 C   0  0  0  0  0  0  0  0  0  0  0  0
   -2.1892   -0.3318    0.0405 C   0  0  1  0  0  3  0  0  0  0  0  0
   -2.1197    0.8991   -0.4806 N   0  0  0  0  0  0  0  0  0  0  0  0
   -0.9909    1.3460   -1.0335 C   0  0  0  0  0  0  0  0  0  0  0  0
    0.1639    0.5878   -1.1113 C   0  0  0  0  0  0  0  0  0  0  0  0
    0.1329   -0.7251   -0.6251 C   0  0  0  0  0  0  0  0  0  0  0  0
    1.3120   -1.7042   -0.6950 C   0  0  0  0  0  0  0  0  0  0  0  0
    1.1930   -2.7771   -0.0361 O   0  0  0  0  0  1  0  0  0  0  0  0
    2.2841   -1.4415   -1.4171 O   0  0  0  0  0  0  0  0  0  0  0  0
    1.3808    1.2877   -1.6378 C   0  0  0  0  0  0  0  0  0  0  0  0
    2.1237    0.5580   -1.9508 H   0  0  0  0  0  0  0  0  0  0  0  0
    1.1018    1.9091   -2.4905 H   0  0  0  0  0  0  0  0  0  0  0  0
    1.9795    2.1828   -0.5418 C   0  0  0  0  0  0  0  0  0  0  0  0
    2.4623    1.3799    0.6591 C   0  0  0  0  0  0  0  0  0  0  0  0
    3.0202    0.4927    0.3483 H   0  0  0  0  0  0  0  0  0  0  0  0
    3.1253    1.9880    1.2831 H   0  0  0  0  0  0  0  0  0  0  0  0
    1.3243    0.8978    1.6083 C   0  0  0  0  0  0  0  0  0  0  0  0
    1.5827   -0.1040    2.3112 O   0  0  0  0  0  1  0  0  0  0  0  0
    0.2608    1.5509    1.6321 O   0  0  0  0  0  0  0  0  0  0  0  0
    1.2275    2.8917   -0.1865 H   0  0  0  0  0  0  0  0  0  0  0  0
    2.8185    2.7364   -0.9681 H   0  0  0  0  0  0  0  0  0  0  0  0
   -0.9929    2.3584   -1.4050 H   0  0  0  0  0  0  0  0  0  0  0  0
   -3.2719    1.7714   -0.4093 C   0  0  0  0  0  0  0  0  0  0  0  0
   -3.0565    2.7012   -0.9284 H   0  0  0  0  0  0  0  0  0  0  0  0
   -3.4985    1.9925    0.6337 H   0  0  0  0  0  0  0  0  0  0  0  0
   -4.1340    1.2875   -0.8671 H   0  0  0  0  0  0  0  0  0  0  0  0
   -3.4475   -0.8003    0.6830 C   0  0  0  0  0  0  0  0  0  0  0  0
   -4.2683   -0.8131   -0.0320 H   0  0  0  0  0  0  0  0  0  0  0  0
   -3.7149   -0.1513    1.5147 H   0  0  0  0  0  0  0  0  0  0  0  0
   -3.2899   -1.8067    1.0588 H   0  0  0  0  0  0  0  0  0  0  0  0
   -1.1912   -2.3983    0.4786 O   0  0  0  0  0  0  0  0  0  0  0  0
   -0.2585   -2.8059    0.4044 H   0  0  0  0  0  0  0  0  0  0  0  0
  1  2  1  0  0  0  0
  1 31  1  0  0  0  0
  2 27  1  6  0  0  0
  3 23  1  0  0  0  0
  3  2  1  0  0  0  0
  4  3  1  0  0  0  0
  5  4  2  0  0  0  0
  5  6  1  0  0  0  0
  6  1  2  0  0  0  0
  7  6  1  0  0  0  0
  7  8  1  0  0  0  0
  9  7  2  0  0  0  0
 10  5  1  0  0  0  0
 10 13  1  0  0  0  0
 11 10  1  0  0  0  0
 12 10  1  0  0  0  0
 13 20  1  0  0  0  0
 13 14  1  0  0  0  0
 14 16  1  0  0  0  0
 14 17  1  0  0  0  0
 15 14  1  0  0  0  0
 17 19  2  0  0  0  0
 17 18  1  0  0  0  0
 21 13  1  0  0  0  0
 22  4  1  0  0  0  0
 23 25  1  0  0  0  0
 24 23  1  0  0  0  0
 26 23  1  0  0  0  0
 27 30  1  0  0  0  0
 27 29  1  0  0  0  0
 28 27  1  0  0  0  0
 32 31  1  0  0  0  0
M  END
>  <target>  (58)
-1.38

$$$$
-59.84046707
 OpenBabel07082014033D

 36 36  0  0  0  0  0  0  0  0999 V2000
   -1.2906   -1.0905   -0.3390 C   0  0  0  0  0  0  0  0  0  0  0  0
   -0.2823   -0.2707   -0.8774 C   0  0  0  0  0  0  0  0  0  0  0  0
   -0.4507    1.1167   -0.7997 C   0  0  0  0  0  0  0  0  0  0  0  0
   -1.6155    1.6034   -0.2340 C   0  0  0  0  0  3  0  0  0  0  0  0
   -2.5788    0.8096    0.2442 N   0  0  0  0  0  0  0  0  0  0  0  0
   -2.4548   -0.5230    0.2144 C   0  0  0  0  0  0  0  0  0  0  0  0
   -3.5283   -1.3880    0.7709 C   0  0  0  0  0  0  0  0  0  0  0  0
   -3.6831   -1.1812    1.8285 H   0  0  0  0  0  0  0  0  0  0  0  0
   -3.2368   -2.4277    0.6560 H   0  0  0  0  0  0  0  0  0  0  0  0
   -4.4692   -1.2264    0.2474 H   0  0  0  0  0  0  0  0  0  0  0  0
   -3.7672    1.4020    0.8187 C   0  0  0  0  0  0  0  0  0  0  0  0
   -4.6531    1.0549    0.2871 H   0  0  0  0  0  0  0  0  0  0  0  0
   -3.7095    2.4849    0.7482 H   0  0  0  0  0  0  0  0  0  0  0  0
   -3.8562    1.1172    1.8672 H   0  0  0  0  0  0  0  0  0  0  0  0
   -1.7735    2.6679   -0.1601 H   0  0  0  0  0  0  0  0  0  0  0  0
    0.5642    2.1317   -1.2375 C   0  0  0  0  0  0  0  0  0  0  0  0
    1.2147    1.6981   -1.9944 H   0  0  0  0  0  0  0  0  0  0  0  0
    0.0379    2.9819   -1.6729 H   0  0  0  0  0  0  0  0  0  0  0  0
    1.4137    2.6339   -0.0585 C   0  0  0  0  0  0  0  0  0  0  0  0
    0.7727    2.8457    0.7989 H   0  0  0  0  0  0  0  0  0  0  0  0
    1.9062    3.5561   -0.3660 H   0  0  0  0  0  0  0  0  0  0  0  0
    2.4934    1.6401    0.3628 C   0  0  0  0  0  0  0  0  0  0  0  0
    1.9647    0.4578    1.1370 C   0  0  0  0  0  0  0  0  0  0  0  0
    0.8712    0.3863    1.6545 O   0  0  0  0  0  0  0  0  0  0  0  0
    2.8873   -0.4949    1.2240 O   0  0  0  0  0  0  0  0  0  0  0  0
    2.5468   -1.7068    1.8979 C   0  0  0  0  0  0  0  0  0  0  0  0
    1.8241   -1.5042    2.6897 H   0  0  0  0  0  0  0  0  0  0  0  0
    2.1175   -2.4018    1.1732 H   0  0  0  0  0  0  0  0  0  0  0  0
    3.4738   -2.1053    2.3009 H   0  0  0  0  0  0  0  0  0  0  0  0
    3.2280    2.1302    1.0064 H   0  0  0  0  0  0  0  0  0  0  0  0
    3.0254    1.2505   -0.5070 H   0  0  0  0  0  0  0  0  0  0  0  0
    0.9497   -0.9595   -1.4881 C   0  0  0  0  0  0  0  0  0  0  0  0
    1.1553   -2.1457   -1.1049 O   0  0  0  0  0  1  0  0  0  0  0  0
    1.6387   -0.3475   -2.3124 O   0  0  0  0  0  0  0  0  0  0  0  0
   -1.1937   -2.4202   -0.3219 O   0  0  0  0  0  0  0  0  0  0  0  0
   -0.2511   -2.6217   -0.6305 H   0  0  0  0  0  0  0  0  0  0  0  0
  1 35  1  0  0  0  0
  1  6  2  0  0  0  0
  2  3  2  0  0  0  0
  2  1  1  0  0  0  0
  3  4  1  0  0  0  0
  4 15  1  0  0  0  0
  4  5  1  0  0  0  0
  5 11  1  0  0  0  0
  6  5  1  0  0  0  0
  6  7  1  0  0  0  0
  7  8  1  0  0  0  0
  9  7  1  0  0  0  0
 10  7  1  0  0  0  0
 11 14  1  0  0  0  0
 12 11  1  0  0  0  0
 13 11  1  0  0  0  0
 16  3  1  0  0  0  0
 16 19  1  0  0  0  0
 17 16  1  0  0  0  0
 18 16  1  0  0  0  0
 19 22  1  0  0  0  0
 19 20  1  0  0  0  0
 21 19  1  0  0  0  0
 22 30  1  0  0  0  0
 22 23  1  0  0  0  0
 23 25  1  0  0  0  0
 23 24  2  0  0  0  0
 25 26  1  0  0  0  0
 26 29  1  0  0  0  0
 26 27  1  0  0  0  0
 28 26  1  0  0  0  0
 31 22  1  0  0  0  0
 32 33  1  0  0  0  0
 32  2  1  0  0  0  0
 34 32  2  0  0  0  0
 36 35  1  0  0  0  0
M  END
>  <target>  (59)
-1.22

$$$$
-61.68343414
 OpenBabel07082014033D

 33 33  0  0  0  0  0  0  0  0999 V2000
    1.5791    0.9481   -0.2653 C   0  0  0  0  0  0  0  0  0  0  0  0
    0.4443    1.0030    0.5702 C   0  0  0  0  0  0  0  0  0  0  0  0
    0.2092   -0.0895    1.4102 C   0  0  0  0  0  0  0  0  0  0  0  0
    1.1070   -1.1427    1.3937 C   0  0  0  0  0  3  0  0  0  0  0  0
    2.1582   -1.1904    0.5761 N   0  0  0  0  0  0  0  0  0  0  0  0
    2.4124   -0.1837   -0.2706 C   0  0  0  0  0  0  0  0  0  0  0  0
    3.5806   -0.2630   -1.1914 C   0  0  0  0  0  0  0  0  0  0  0  0
    3.5005   -1.1375   -1.8339 H   0  0  0  0  0  0  0  0  0  0  0  0
    4.5139   -0.3189   -0.6335 H   0  0  0  0  0  0  0  0  0  0  0  0
    3.5933    0.6291   -1.8101 H   0  0  0  0  0  0  0  0  0  0  0  0
    3.0126   -2.3577    0.5794 C   0  0  0  0  0  0  0  0  0  0  0  0
    2.7043   -3.0309    1.3745 H   0  0  0  0  0  0  0  0  0  0  0  0
    2.9246   -2.8762   -0.3751 H   0  0  0  0  0  0  0  0  0  0  0  0
    4.0496   -2.0607    0.7319 H   0  0  0  0  0  0  0  0  0  0  0  0
    0.9510   -1.9909    2.0413 H   0  0  0  0  0  0  0  0  0  0  0  0
   -0.9691   -0.2520    2.3258 C   0  0  0  0  0  0  0  0  0  0  0  0
   -0.6292   -0.6864    3.2678 H   0  0  0  0  0  0  0  0  0  0  0  0
   -1.4293    0.7147    2.5171 H   0  0  0  0  0  0  0  0  0  0  0  0
   -2.0108   -1.1886    1.6971 C   0  0  0  0  0  0  0  0  0  0  0  0
   -2.6596   -0.5886    0.4721 C   0  0  0  0  0  0  0  0  0  0  0  0
   -2.7952    0.4844    0.5457 H   0  0  0  0  0  0  0  0  0  0  0  0
   -3.5915   -1.0738    0.2055 H   0  0  0  0  0  0  0  0  0  0  0  0
   -1.6580   -0.8082   -1.0335 S   0  0  0  0  0  0  0  0  0  0  0  0
   -0.5643   -1.7538   -0.7556 O   0  0  0  0  0  1  0  0  0  0  0  0
   -2.6000   -1.3669   -2.0235 O   0  0  0  0  0  1  0  0  0  0  0  0
   -1.1533    0.5076   -1.4609 O   0  0  0  0  0  1  0  0  0  0  0  0
   -1.5369   -2.1226    1.3880 H   0  0  0  0  0  0  0  0  0  0  0  0
   -2.7782   -1.4032    2.4439 H   0  0  0  0  0  0  0  0  0  0  0  0
   -0.4531    2.2457    0.4834 C   0  0  0  0  0  0  0  0  0  0  0  0
   -1.5113    2.2890    1.1267 O   0  0  0  0  0  1  0  0  0  0  0  0
   -0.0229    3.2058   -0.2190 O   0  0  0  0  0  0  0  0  0  0  0  0
    1.9186    1.9525   -1.0733 O   0  0  0  0  0  0  0  0  0  0  0  0
    1.1926    2.6560   -0.9167 H   0  0  0  0  0  0  0  0  0  0  0  0
  1  2  1  0  0  0  0
  2  3  2  0  0  0  0
  3 16  1  0  0  0  0
  4  3  1  0  0  0  0
  4 15  1  0  0  0  0
  5 11  1  0  0  0  0
  5  4  1  0  0  0  0
  6  1  2  0  0  0  0
  6  5  1  0  0  0  0
  7  9  1  0  0  0  0
  7  6  1  0  0  0  0
  8  7  1  0  0  0  0
 10  7  1  0  0  0  0
 11 14  1  0  0  0  0
 11 12  1  0  0  0  0
 13 11  1  0  0  0  0
 16 18  1  0  0  0  0
 16 17  1  0  0  0  0
 19 16  1  0  0  0  0
 19 28  1  0  0  0  0
 20 21  1  0  0  0  0
 20 19  1  0  0  0  0
 22 20  1  0  0  0  0
 23 24  1  0  0  0  0
 23 20  1  0  0  0  0
 25 23  1  0  0  0  0
 26 23  1  0  0  0  0
 27 19  1  0  0  0  0
 29  2  1  0  0  0  0
 29 30  1  0  0  0  0
 31 29  2  0  0  0  0
 32 33  1  0  0  0  0
 32  1  1  0  0  0  0
M  END
>  <target>  (60)
-0.97

$$$$
-61.58191991
 OpenBabel07082014033D

 34 34  0  0  0  0  0  0  0  0999 V2000
   -1.5517   -0.9035   -0.3605 C   0  0  0  0  0  0  0  0  0  0  0  0
   -0.4527   -1.0718    0.5057 C   0  0  0  0  0  0  0  0  0  0  0  0
   -0.2200   -0.0701    1.4545 C   0  0  0  0  0  0  0  0  0  0  0  0
   -1.1000    0.9960    1.5186 C   0  0  0  0  0  3  0  0  0  0  0  0
   -2.1248    1.1469    0.6797 N   0  0  0  0  0  0  0  0  0  0  0  0
   -2.3651    0.2416   -0.2760 C   0  0  0  0  0  0  0  0  0  0  0  0
   -3.4965    0.4408   -1.2232 C   0  0  0  0  0  0  0  0  0  0  0  0
   -3.4996   -0.3800   -1.9338 H   0  0  0  0  0  0  0  0  0  0  0  0
   -3.3764    1.3765   -1.7655 H   0  0  0  0  0  0  0  0  0  0  0  0
   -4.4486    0.4564   -0.6956 H   0  0  0  0  0  0  0  0  0  0  0  0
   -2.9583    2.3253    0.7775 C   0  0  0  0  0  0  0  0  0  0  0  0
   -2.6699    2.9019    1.6520 H   0  0  0  0  0  0  0  0  0  0  0  0
   -4.0054    2.0363    0.8565 H   0  0  0  0  0  0  0  0  0  0  0  0
   -2.8216    2.9398   -0.1125 H   0  0  0  0  0  0  0  0  0  0  0  0
   -0.9485    1.7730    2.2514 H   0  0  0  0  0  0  0  0  0  0  0  0
    0.9421   -0.0135    2.4014 C   0  0  0  0  0  0  0  0  0  0  0  0
    0.5972    0.3468    3.3727 H   0  0  0  0  0  0  0  0  0  0  0  0
    1.3795   -1.0028    2.5155 H   0  0  0  0  0  0  0  0  0  0  0  0
    2.0096    0.9486    1.8640 C   0  0  0  0  0  0  0  0  0  0  0  0
    2.6054    0.4681    0.5504 C   0  0  0  0  0  0  0  0  0  0  0  0
    1.5784    0.8700   -0.9529 P   0  0  2  0  0  0  0  0  0  0  0  0
    0.4784    1.8495   -0.6552 O   0  0  0  0  0  1  0  0  0  0  0  0
    1.2365   -0.3608   -1.7338 O   0  0  0  0  0  0  0  0  0  0  0  0
    2.6992    1.6868   -1.8666 O   0  0  0  0  0  0  0  0  0  0  0  0
    2.6748    2.6148   -1.6196 H   0  0  0  0  0  0  0  0  0  0  0  0
    2.7302   -0.6146    0.5534 H   0  0  0  0  0  0  0  0  0  0  0  0
    3.5887    0.9128    0.3869 H   0  0  0  0  0  0  0  0  0  0  0  0
    2.8041    1.0331    2.6087 H   0  0  0  0  0  0  0  0  0  0  0  0
    1.5672    1.9342    1.7005 H   0  0  0  0  0  0  0  0  0  0  0  0
    0.4017   -2.3361    0.3461 C   0  0  0  0  0  0  0  0  0  0  0  0
   -0.0103   -3.1968   -0.4842 O   0  0  0  0  0  0  0  0  0  0  0  0
    1.4094   -2.4943    1.0503 O   0  0  0  0  0  1  0  0  0  0  0  0
   -1.8856   -1.8106   -1.2768 O   0  0  0  0  0  0  0  0  0  0  0  0
   -1.1849   -2.5473   -1.1713 H   0  0  0  0  0  0  0  0  0  0  0  0
  1  6  2  0  0  0  0
  1  2  1  0  0  0  0
  2  3  2  0  0  0  0
  3  4  1  0  0  0  0
  3 16  1  0  0  0  0
  4 15  1  0  0  0  0
  5 11  1  0  0  0  0
  5  4  1  0  0  0  0
  6  5  1  0  0  0  0
  7 10  1  0  0  0  0
  7  6  1  0  0  0  0
  8  7  1  0  0  0  0
  9  7  1  0  0  0  0
 11 13  1  0  0  0  0
 11 12  1  0  0  0  0
 14 11  1  0  0  0  0
 16 18  1  0  0  0  0
 16 17  1  0  0  0  0
 19 16  1  0  0  0  0
 19 28  1  0  0  0  0
 20 26  1  0  0  0  0
 20 19  1  0  0  0  0
 21 23  2  6  0  0  0
 21 22  1  0  0  0  0
 21 20  1  0  0  0  0
 24 25  1  0  0  0  0
 24 21  1  0  0  0  0
 27 20  1  0  0  0  0
 29 19  1  0  0  0  0
 30  2  1  0  0  0  0
 30 32  1  0  0  0  0
 31 30  2  0  0  0  0
 33 34  1  0  0  0  0
 33  1  1  0  0  0  0
M  END
>  <target>  (61)
-1.02

$$$$
-56.04369874
 OpenBabel07082014033D

 34 34  0  0  0  0  0  0  0  0999 V2000
   -0.9366   -1.1900    0.0804 C   0  0  0  0  0  0  0  0  0  0  0  0
    0.1907   -0.6098    0.6845 C   0  0  0  0  0  0  0  0  0  0  0  0
    0.1063    0.7194    1.1077 C   0  0  0  0  0  0  0  0  0  0  0  0
   -1.1099    1.3666    0.9919 C   0  0  0  0  0  3  0  0  0  0  0  0
   -2.1928    0.7778    0.4761 N   0  0  0  0  0  0  0  0  0  0  0  0
   -2.1442   -0.4733   -0.0025 C   0  0  0  0  0  0  0  0  0  0  0  0
   -3.3466   -1.0858   -0.6260 C   0  0  0  0  0  0  0  0  0  0  0  0
   -3.6772   -0.4997   -1.4819 H   0  0  0  0  0  0  0  0  0  0  0  0
   -3.0974   -2.0887   -0.9599 H   0  0  0  0  0  0  0  0  0  0  0  0
   -4.1679   -1.1474    0.0861 H   0  0  0  0  0  0  0  0  0  0  0  0
   -3.4296    1.5225    0.3885 C   0  0  0  0  0  0  0  0  0  0  0  0
   -3.3080    2.4943    0.8591 H   0  0  0  0  0  0  0  0  0  0  0  0
   -3.7007    1.6671   -0.6577 H   0  0  0  0  0  0  0  0  0  0  0  0
   -4.2315    0.9789    0.8876 H   0  0  0  0  0  0  0  0  0  0  0  0
   -1.2094    2.3920    1.3107 H   0  0  0  0  0  0  0  0  0  0  0  0
    1.2960    1.5141    1.5471 C   0  0  0  0  0  0  0  0  0  0  0  0
    2.0494    0.8472    1.9637 H   0  0  0  0  0  0  0  0  0  0  0  0
    1.0024    2.2340    2.3108 H   0  0  0  0  0  0  0  0  0  0  0  0
    1.8807    2.2710    0.3428 C   0  0  0  0  0  0  0  0  0  0  0  0
    2.3413    1.3272   -0.7679 C   0  0  0  0  0  0  0  0  0  0  0  0
    1.1989    0.8446   -1.6456 C   0  0  0  0  0  0  0  0  0  0  0  0
    0.1510    1.4578   -1.7857 O   0  0  0  0  0  0  0  0  0  0  0  0
    1.4571   -0.2813   -2.3360 N   0  0  0  0  0  0  0  0  0  0  0  0
    0.7241   -0.6734   -2.9067 H   0  0  0  0  0  0  0  0  0  0  0  0
    2.2141   -0.8912   -2.0772 H   0  0  0  0  0  0  0  0  0  0  0  0
    2.8657    0.4682   -0.3455 H   0  0  0  0  0  0  0  0  0  0  0  0
    3.0359    1.8513   -1.4292 H   0  0  0  0  0  0  0  0  0  0  0  0
    1.1276    2.9442   -0.0713 H   0  0  0  0  0  0  0  0  0  0  0  0
    2.7288    2.8610    0.6895 H   0  0  0  0  0  0  0  0  0  0  0  0
    1.4384   -1.4942    0.8483 C   0  0  0  0  0  0  0  0  0  0  0  0
    2.1643   -1.3153    1.8330 O   0  0  0  0  0  1  0  0  0  0  0  0
    1.5923   -2.3769   -0.0396 O   0  0  0  0  0  0  0  0  0  0  0  0
   -0.8985   -2.4145   -0.4522 O   0  0  0  0  0  0  0  0  0  0  0  0
    0.0669   -2.6976   -0.4189 H   0  0  0  0  0  0  0  0  0  0  0  0
  1  2  1  0  0  0  0
  2 30  1  0  0  0  0
  2  3  2  0  0  0  0
  3 16  1  0  0  0  0
  4  3  1  0  0  0  0
  4 15  1  0  0  0  0
  5  4  1  0  0  0  0
  6  1  2  0  0  0  0
  6  5  1  0  0  0  0
  7  6  1  0  0  0  0
  7 10  1  0  0  0  0
  8  7  1  0  0  0  0
  9  7  1  0  0  0  0
 11  5  1  0  0  0  0
 11 12  1  0  0  0  0
 11 14  1  0  0  0  0
 13 11  1  0  0  0  0
 16 17  1  0  0  0  0
 16 18  1  0  0  0  0
 19 29  1  0  0  0  0
 19 16  1  0  0  0  0
 20 26  1  0  0  0  0
 20 19  1  0  0  0  0
 21 20  1  0  0  0  0
 22 21  2  0  0  0  0
 23 25  1  0  0  0  0
 23 21  1  0  0  0  0
 24 23  1  0  0  0  0
 27 20  1  0  0  0  0
 28 19  1  0  0  0  0
 30 31  1  0  0  0  0
 32 30  2  0  0  0  0
 33 34  1  0  0  0  0
 33  1  1  0  0  0  0
M  END
>  <target>  (62)
-1.33

$$$$
-44.11353523
 OpenBabel07082014033D

 25 25  0  0  0  0  0  0  0  0999 V2000
   -0.6262   -1.0630    0.0189 C   0  0  0  0  0  0  0  0  0  0  0  0
    0.5532   -0.3098   -0.1277 C   0  0  0  0  0  0  0  0  0  0  0  0
    0.4362    1.0760   -0.2930 C   0  0  0  0  0  0  0  0  0  0  0  0
   -0.8222    1.6432   -0.2457 C   0  0  0  0  0  3  0  0  0  0  0  0
   -1.9312    0.9179   -0.0504 N   0  0  0  0  0  0  0  0  0  0  0  0
   -1.8786   -0.4143    0.0766 C   0  0  0  0  0  0  0  0  0  0  0  0
   -3.1243   -1.1992    0.2690 C   0  0  0  0  0  0  0  0  0  0  0  0
   -2.8696   -2.2523    0.3440 H   0  0  0  0  0  0  0  0  0  0  0  0
   -3.8050   -1.0603   -0.5694 H   0  0  0  0  0  0  0  0  0  0  0  0
   -3.6390   -0.8956    1.1793 H   0  0  0  0  0  0  0  0  0  0  0  0
   -3.2123    1.5868    0.0124 C   0  0  0  0  0  0  0  0  0  0  0  0
   -3.0749    2.6590   -0.0997 H   0  0  0  0  0  0  0  0  0  0  0  0
   -3.6920    1.3874    0.9709 H   0  0  0  0  0  0  0  0  0  0  0  0
   -3.8635    1.2246   -0.7835 H   0  0  0  0  0  0  0  0  0  0  0  0
   -0.9409    2.7091   -0.3574 H   0  0  0  0  0  0  0  0  0  0  0  0
    1.6273    1.9869   -0.4979 C   0  0  0  0  0  0  0  0  0  0  0  0
    2.3668    2.1620    0.6859 O   0  0  0  0  0  0  0  0  0  0  0  0
    2.8030    1.3025    0.8472 H   0  0  0  0  0  0  0  0  0  0  0  0
    1.2882    2.9819   -0.7948 H   0  0  0  0  0  0  0  0  0  0  0  0
    2.2645    1.5716   -1.2908 H   0  0  0  0  0  0  0  0  0  0  0  0
    1.8961   -1.0554   -0.0688 C   0  0  0  0  0  0  0  0  0  0  0  0
    2.9131   -0.4171    0.2416 O   0  0  0  0  0  1  0  0  0  0  0  0
    1.8507   -2.2886   -0.3102 O   0  0  0  0  0  0  0  0  0  0  0  0
   -0.6165   -2.3882    0.1073 O   0  0  0  0  0  0  0  0  0  0  0  0
    0.3427   -2.6697   -0.0450 H   0  0  0  0  0  0  0  0  0  0  0  0
  1  6  2  0  0  0  0
  1 24  1  0  0  0  0
  2 21  1  0  0  0  0
  2  1  1  0  0  0  0
  3  4  1  0  0  0  0
  3  2  2  0  0  0  0
  4  5  1  0  0  0  0
  5 11  1  0  0  0  0
  5  6  1  0  0  0  0
  6  7  1  0  0  0  0
  7  8  1  0  0  0  0
  7 10  1  0  0  0  0
  9  7  1  0  0  0  0
 11 13  1  0  0  0  0
 12 11  1  0  0  0  0
 14 11  1  0  0  0  0
 15  4  1  0  0  0  0
 16  3  1  0  0  0  0
 16 17  1  0  0  0  0
 17 18  1  0  0  0  0
 19 16  1  0  0  0  0
 20 16  1  0  0  0  0
 21 22  1  0  0  0  0
 23 21  2  0  0  0  0
 25 24  1  0  0  0  0
M  END
>  <target>  (63)
-1.13

$$$$
-47.27076799
 OpenBabel07082014033D

 28 28  0  0  0  0  0  0  0  0999 V2000
   -1.5284   -0.5247    0.0002 C   0  0  0  0  0  0  0  0  0  0  0  0
   -0.1556   -0.8336    0.0005 C   0  0  0  0  0  0  0  0  0  0  0  0
    0.7558    0.2297    0.0010 C   0  0  0  0  0  0  0  0  0  0  0  0
    0.2725    1.5242    0.0013 C   0  0  0  0  0  3  0  0  0  0  0  0
   -1.0372    1.7978    0.0005 N   0  0  0  0  0  0  0  0  0  0  0  0
   -1.9540    0.8224   -0.0001 C   0  0  0  0  0  0  0  0  0  0  0  0
   -3.4022    1.1540   -0.0014 C   0  0  0  0  0  0  0  0  0  0  0  0
   -3.9741    0.2306   -0.0015 H   0  0  0  0  0  0  0  0  0  0  0  0
   -3.6695    1.7338    0.8806 H   0  0  0  0  0  0  0  0  0  0  0  0
   -3.6680    1.7331   -0.8842 H   0  0  0  0  0  0  0  0  0  0  0  0
   -1.4670    3.1791   -0.0003 C   0  0  0  0  0  0  0  0  0  0  0  0
   -2.0687    3.3840   -0.8860 H   0  0  0  0  0  0  0  0  0  0  0  0
   -2.0709    3.3846    0.8837 H   0  0  0  0  0  0  0  0  0  0  0  0
   -0.5985    3.8324    0.0006 H   0  0  0  0  0  0  0  0  0  0  0  0
    0.9705    2.3449    0.0018 H   0  0  0  0  0  0  0  0  0  0  0  0
    2.2411    0.0287    0.0011 C   0  0  0  0  0  0  0  0  0  0  0  0
    2.9059    1.2697    0.0001 O   0  0  0  0  0  0  0  0  0  0  0  0
    4.3088    1.1345   -0.0013 C   0  0  0  0  0  0  0  0  0  0  0  0
    4.6541    0.5964    0.8885 H   0  0  0  0  0  0  0  0  0  0  0  0
    4.6522    0.5957   -0.8914 H   0  0  0  0  0  0  0  0  0  0  0  0
    4.7116    2.1445   -0.0021 H   0  0  0  0  0  0  0  0  0  0  0  0
    2.5259   -0.5704   -0.8770 H   0  0  0  0  0  0  0  0  0  0  0  0
    2.5263   -0.5693    0.8798 H   0  0  0  0  0  0  0  0  0  0  0  0
    0.2763   -2.3071   -0.0001 C   0  0  0  0  0  0  0  0  0  0  0  0
    1.4856   -2.5675   -0.0016 O   0  0  0  0  0  0  0  0  0  0  0  0
   -0.6551   -3.1599    0.0008 O   0  0  0  0  0  1  0  0  0  0  0  0
   -2.4663   -1.4634   -0.0001 O   0  0  0  0  0  0  0  0  0  0  0  0
   -1.9577   -2.3490    0.0001 H   0  0  0  0  0  0  0  0  0  0  0  0
  1  2  1  0  0  0  0
  2  3  2  0  0  0  0
  3 16  1  0  0  0  0
  3  4  1  0  0  0  0
  4 15  1  0  0  0  0
  5  4  1  0  0  0  0
  6  1  2  0  0  0  0
  6  5  1  0  0  0  0
  7  6  1  0  0  0  0
  7  9  1  0  0  0  0
  8  7  1  0  0  0  0
 10  7  1  0  0  0  0
 11  5  1  0  0  0  0
 11 14  1  0  0  0  0
 11 13  1  0  0  0  0
 12 11  1  0  0  0  0
 16 23  1  0  0  0  0
 17 16  1  0  0  0  0
 18 17  1  0  0  0  0
 18 19  1  0  0  0  0
 20 18  1  0  0  0  0
 21 18  1  0  0  0  0
 22 16  1  0  0  0  0
 24  2  1  0  0  0  0
 24 26  1  0  0  0  0
 25 24  2  0  0  0  0
 27 28  1  0  0  0  0
 27  1  1  0  0  0  0
M  END
>  <target>  (64)
-1.31

$$$$
-50.43798090
 OpenBabel07082014033D

 31 31  0  0  0  0  0  0  0  0999 V2000
    1.8821    0.4343    0.0223 C   0  0  0  0  0  0  0  0  0  0  0  0
    0.5349    0.8375   -0.0238 C   0  0  0  0  0  0  0  0  0  0  0  0
   -0.4473   -0.1603   -0.0586 C   0  0  0  0  0  0  0  0  0  0  0  0
   -0.0552   -1.4850   -0.0362 C   0  0  0  0  0  3  0  0  0  0  0  0
    1.2313   -1.8485    0.0168 N   0  0  0  0  0  0  0  0  0  0  0  0
    2.2131   -0.9389    0.0452 C   0  0  0  0  0  0  0  0  0  0  0  0
    3.6340   -1.3697    0.0995 C   0  0  0  0  0  0  0  0  0  0  0  0
    3.8289   -1.9584    0.9945 H   0  0  0  0  0  0  0  0  0  0  0  0
    3.8911   -1.9739   -0.7691 H   0  0  0  0  0  0  0  0  0  0  0  0
    4.2679   -0.4879    0.1141 H   0  0  0  0  0  0  0  0  0  0  0  0
    1.5637   -3.2562    0.0438 C   0  0  0  0  0  0  0  0  0  0  0  0
    2.1168   -3.4929    0.9529 H   0  0  0  0  0  0  0  0  0  0  0  0
    0.6526   -3.8478    0.0156 H   0  0  0  0  0  0  0  0  0  0  0  0
    2.1836   -3.5116   -0.8158 H   0  0  0  0  0  0  0  0  0  0  0  0
   -0.8085   -2.2549   -0.0620 H   0  0  0  0  0  0  0  0  0  0  0  0
   -1.9139    0.1449   -0.1150 C   0  0  0  0  0  0  0  0  0  0  0  0
   -2.6578   -1.0477   -0.2036 O   0  0  0  0  0  0  0  0  0  0  0  0
   -4.0345   -0.8564   -0.4741 C   0  0  0  0  0  0  0  0  0  0  0  0
   -4.8179   -0.2501    0.6864 C   0  0  0  0  0  0  0  0  0  0  0  0
   -4.6469   -0.8255    1.5926 H   0  0  0  0  0  0  0  0  0  0  0  0
   -4.5180    0.7806    0.8621 H   0  0  0  0  0  0  0  0  0  0  0  0
   -5.8777   -0.2649    0.4510 H   0  0  0  0  0  0  0  0  0  0  0  0
   -4.4060   -1.8608   -0.6913 H   0  0  0  0  0  0  0  0  0  0  0  0
   -4.1512   -0.2300   -1.3706 H   0  0  0  0  0  0  0  0  0  0  0  0
   -2.1844    0.7266    0.7770 H   0  0  0  0  0  0  0  0  0  0  0  0
   -2.1159    0.7963   -0.9783 H   0  0  0  0  0  0  0  0  0  0  0  0
    0.2059    2.3372   -0.0259 C   0  0  0  0  0  0  0  0  0  0  0  0
   -0.9824    2.6812   -0.0053 O   0  0  0  0  0  1  0  0  0  0  0  0
    1.1939    3.1235   -0.0433 O   0  0  0  0  0  0  0  0  0  0  0  0
    2.8830    1.3059    0.0463 O   0  0  0  0  0  0  0  0  0  0  0  0
    2.4389    2.2240    0.0136 H   0  0  0  0  0  0  0  0  0  0  0  0
  1  6  2  0  0  0  0
  1 30  1  0  0  0  0
  2  1  1  0  0  0  0
  3  4  1  0  0  0  0
  3  2  2  0  0  0  0
  4  5  1  0  0  0  0
  5 11  1  0  0  0  0
  5  6  1  0  0  0  0
  6  7  1  0  0  0  0
  7 10  1  0  0  0  0
  7  8  1  0  0  0  0
  9  7  1  0  0  0  0
 11 12  1  0  0  0  0
 13 11  1  0  0  0  0
 14 11  1  0  0  0  0
 15  4  1  0  0  0  0
 16  3  1  0  0  0  0
 16 25  1  0  0  0  0
 17 16  1  0  0  0  0
 18 17  1  0  0  0  0
 18 19  1  0  0  0  0
 19 21  1  0  0  0  0
 19 20  1  0  0  0  0
 22 19  1  0  0  0  0
 23 18  1  0  0  0  0
 24 18  1  0  0  0  0
 26 16  1  0  0  0  0
 27  2  1  0  0  0  0
 27 28  1  0  0  0  0
 29 27  2  0  0  0  0
 31 30  1  0  0  0  0
M  END
>  <target>  (65)
-1.36

$$$$
-59.15839830
 OpenBabel07082014033D

 28 29  0  0  1  0  0  0  0  0999 V2000
    1.3810    0.8919   -0.4440 C   0  0  0  0  0  0  0  0  0  0  0  0
    2.5513    0.2296   -0.4603 C   0  0  0  0  0  0  0  0  0  0  0  0
    2.6357   -1.0776    0.0209 N   0  0  0  0  0  0  0  0  0  0  0  0
    1.5132   -1.6614    0.5261 C   0  0  0  0  0  0  0  0  0  0  0  0
    0.3231   -1.0530    0.6289 C   0  0  0  0  0  0  0  0  0  0  0  0
    0.1053    0.3240    0.1049 C   0  0  1  0  0  0  0  0  0  0  0  0
   -0.4332    1.3410    1.1574 C   0  0  0  0  0  0  0  0  0  0  0  0
   -0.3889    1.0148    2.3571 O   0  0  0  0  0  1  0  0  0  0  0  0
   -0.7437    2.4696    0.7003 O   0  0  0  0  0  0  0  0  0  0  0  0
   -0.9241   -1.7534    1.0570 C   0  0  0  0  0  0  0  0  0  0  0  0
   -1.8485   -1.8369   -0.0332 O   0  0  0  0  0  0  0  0  0  0  0  0
   -2.3081   -0.3434   -0.5858 P   0  0  2  0  0  0  0  0  0  0  0  0
   -2.9580    0.3940    0.5480 O   0  0  0  0  0  1  0  0  0  0  0  0
   -3.0809   -0.5522   -1.8417 O   0  0  0  0  0  0  0  0  0  0  0  0
   -0.8733    0.2863   -1.0027 O   0  0  0  0  0  0  0  0  0  0  0  0
   -0.7382   -2.7868    1.3693 H   0  0  0  0  0  0  0  0  0  0  0  0
   -1.4010   -1.1924    1.8742 H   0  0  0  0  0  0  0  0  0  0  0  0
    1.6297   -2.6766    0.8784 H   0  0  0  0  0  0  0  0  0  0  0  0
    3.9174   -1.7340    0.1454 C   0  0  0  0  0  0  0  0  0  0  0  0
    4.4401   -1.7203   -0.8096 H   0  0  0  0  0  0  0  0  0  0  0  0
    4.5334   -1.2442    0.9028 H   0  0  0  0  0  0  0  0  0  0  0  0
    3.7489   -2.7655    0.4422 H   0  0  0  0  0  0  0  0  0  0  0  0
    3.8010    0.8583   -1.0029 C   0  0  0  0  0  0  0  0  0  0  0  0
    4.5896    0.8602   -0.2549 H   0  0  0  0  0  0  0  0  0  0  0  0
    4.1437    0.3276   -1.8883 H   0  0  0  0  0  0  0  0  0  0  0  0
    3.5648    1.8809   -1.2779 H   0  0  0  0  0  0  0  0  0  0  0  0
    1.2958    2.1789   -0.9402 O   0  0  0  0  0  0  0  0  0  0  0  0
    0.4641    2.5415   -0.5605 H   0  0  0  0  0  0  0  0  0  0  0  0
  1  6  1  0  0  0  0
  2  1  2  0  0  0  0
  2  3  1  0  0  0  0
  3 19  1  0  0  0  0
  3  4  1  0  0  0  0
  4  5  2  0  0  0  0
  4 18  1  0  0  0  0
  5 10  1  0  0  0  0
  6  5  1  0  0  0  0
  6  7  1  1  0  0  0
  7  8  1  0  0  0  0
  9  7  2  0  0  0  0
 10 16  1  0  0  0  0
 10 17  1  0  0  0  0
 11 10  1  0  0  0  0
 12 14  2  6  0  0  0
 12 11  1  0  0  0  0
 12 13  1  0  0  0  0
 15 12  1  0  0  0  0
 15  6  1  0  0  0  0
 19 22  1  0  0  0  0
 19 21  1  0  0  0  0
 20 19  1  0  0  0  0
 23  2  1  0  0  0  0
 23 24  1  0  0  0  0
 25 23  1  0  0  0  0
 26 23  1  0  0  0  0
 27 28  1  0  0  0  0
 27  1  1  0  0  0  0
M  END
>  <target>  (66)
-0.48

$$$$
-59.45172416
 OpenBabel07082014033D

 28 28  0  0  0  0  0  0  0  0999 V2000
   -1.7137   -0.8107   -0.2963 C   0  0  0  0  0  0  0  0  0  0  0  0
   -0.5177   -0.9356    0.4334 C   0  0  0  0  0  0  0  0  0  0  0  0
   -0.0599    0.1810    1.1293 C   0  0  0  0  0  0  0  0  0  0  0  0
   -0.8365    1.3243    1.1472 C   0  0  0  0  0  3  0  0  0  0  0  0
   -2.0044    1.4025    0.5035 N   0  0  0  0  0  0  0  0  0  0  0  0
   -2.4593    0.3808   -0.2372 C   0  0  0  0  0  0  0  0  0  0  0  0
   -3.7392    0.5106   -0.9833 C   0  0  0  0  0  0  0  0  0  0  0  0
   -3.9172   -0.4121   -1.5274 H   0  0  0  0  0  0  0  0  0  0  0  0
   -4.5701    0.6866   -0.3023 H   0  0  0  0  0  0  0  0  0  0  0  0
   -3.6881    1.3354   -1.6913 H   0  0  0  0  0  0  0  0  0  0  0  0
   -2.7718    2.6279    0.5677 C   0  0  0  0  0  0  0  0  0  0  0  0
   -2.8365    3.0753   -0.4242 H   0  0  0  0  0  0  0  0  0  0  0  0
   -3.7779    2.4163    0.9295 H   0  0  0  0  0  0  0  0  0  0  0  0
   -2.2846    3.3291    1.2396 H   0  0  0  0  0  0  0  0  0  0  0  0
   -0.4885    2.2021    1.6684 H   0  0  0  0  0  0  0  0  0  0  0  0
    1.3176    0.2678    1.7218 C   0  0  0  0  0  0  0  0  0  0  0  0
    2.0951    1.1572    0.9414 O   0  0  0  0  0  0  0  0  0  0  0  0
    2.0468    0.7426   -0.6438 S   0  0  0  0  0  0  0  0  0  0  0  0
    0.7854    1.2550   -1.1633 O   0  0  0  0  0  1  0  0  0  0  0  0
    2.1609   -0.7040   -0.7151 O   0  0  0  0  0  1  0  0  0  0  0  0
    3.1934    1.4535   -1.1855 O   0  0  0  0  0  1  0  0  0  0  0  0
    1.3025    0.6835    2.7338 H   0  0  0  0  0  0  0  0  0  0  0  0
    1.7841   -0.7201    1.7230 H   0  0  0  0  0  0  0  0  0  0  0  0
    0.1920   -2.2960    0.4342 C   0  0  0  0  0  0  0  0  0  0  0  0
   -0.0647   -3.0472   -0.5445 O   0  0  0  0  0  0  0  0  0  0  0  0
    0.8647   -2.6052    1.4275 O   0  0  0  0  0  1  0  0  0  0  0  0
   -2.1776   -1.7994   -1.0592 O   0  0  0  0  0  0  0  0  0  0  0  0
   -1.4478   -2.5016   -1.0566 H   0  0  0  0  0  0  0  0  0  0  0  0
  1  6  2  0  0  0  0
  1  2  1  0  0  0  0
  2 24  1  0  0  0  0
  2  3  2  0  0  0  0
  3  4  1  0  0  0  0
  3 16  1  0  0  0  0
  4 15  1  0  0  0  0
  5 11  1  0  0  0  0
  5  4  1  0  0  0  0
  6  5  1  0  0  0  0
  7  9  1  0  0  0  0
  7  6  1  0  0  0  0
  8  7  1  0  0  0  0
 10  7  1  0  0  0  0
 11 13  1  0  0  0  0
 11 14  1  0  0  0  0
 12 11  1  0  0  0  0
 16 23  1  0  0  0  0
 16 22  1  0  0  0  0
 17 16  1  0  0  0  0
 18 17  1  0  0  0  0
 19 18  1  0  0  0  0
 20 18  1  0  0  0  0
 21 18  1  0  0  0  0
 24 26  1  0  0  0  0
 25 24  2  0  0  0  0
 27 28  1  0  0  0  0
 27  1  1  0  0  0  0
M  END
>  <target>  (67)
-1.11

$$$$
-58.99721039
 OpenBabel07082014033D

 35 36  0  0  0  0  0  0  0  0999 V2000
   -2.4396   -0.2439    0.3735 C   0  0  0  0  0  0  0  0  0  0  0  0
   -1.5673    0.7258   -0.1539 C   0  0  0  0  0  0  0  0  0  0  0  0
   -0.4282    0.2846   -0.8349 C   0  0  0  0  0  0  0  0  0  0  0  0
   -0.2338   -1.0741   -0.9975 C   0  0  0  0  0  3  0  0  0  0  0  0
   -1.0942   -1.9822   -0.5228 N   0  0  0  0  0  0  0  0  0  0  0  0
   -2.1859   -1.6171    0.1616 C   0  0  0  0  0  0  0  0  0  0  0  0
   -3.1163   -2.6448    0.6941 C   0  0  0  0  0  0  0  0  0  0  0  0
   -3.9276   -2.1472    1.2175 H   0  0  0  0  0  0  0  0  0  0  0  0
   -3.5338   -3.2469   -0.1114 H   0  0  0  0  0  0  0  0  0  0  0  0
   -2.6054   -3.3107    1.3878 H   0  0  0  0  0  0  0  0  0  0  0  0
   -0.8316   -3.3870   -0.7471 C   0  0  0  0  0  0  0  0  0  0  0  0
    0.0861   -3.5035   -1.3176 H   0  0  0  0  0  0  0  0  0  0  0  0
   -0.7268   -3.9052    0.2064 H   0  0  0  0  0  0  0  0  0  0  0  0
   -1.6565   -3.8381   -1.2990 H   0  0  0  0  0  0  0  0  0  0  0  0
    0.6341   -1.4316   -1.5292 H   0  0  0  0  0  0  0  0  0  0  0  0
    0.6140    1.2140   -1.4039 C   0  0  0  0  0  0  0  0  0  0  0  0
    1.8701    0.5969   -1.5623 O   0  0  0  0  0  0  0  0  0  0  0  0
    2.6148    0.3313   -0.4410 C   0  0  0  0  0  0  0  0  0  0  0  0
    3.8699   -0.2304   -0.6751 C   0  0  0  0  0  0  0  0  0  0  0  0
    4.6978   -0.5481    0.3821 C   0  0  0  0  0  0  0  0  0  0  0  0
    4.2878   -0.3129    1.6856 C   0  0  0  0  0  0  0  0  0  0  0  0
    3.0437    0.2431    1.9179 C   0  0  0  0  0  0  0  0  0  0  0  0
    2.2012    0.5637    0.8646 C   0  0  0  0  0  0  0  0  0  0  0  0
    1.2358    0.9999    1.0741 H   0  0  0  0  0  0  0  0  0  0  0  0
    2.7137    0.4337    2.9282 H   0  0  0  0  0  0  0  0  0  0  0  0
    4.9347   -0.5588    2.5131 H   0  0  0  0  0  0  0  0  0  0  0  0
    5.6679   -0.9792    0.1886 H   0  0  0  0  0  0  0  0  0  0  0  0
    4.1721   -0.3996   -1.6962 H   0  0  0  0  0  0  0  0  0  0  0  0
    0.3085    1.5185   -2.4101 H   0  0  0  0  0  0  0  0  0  0  0  0
    0.6842    2.1265   -0.8040 H   0  0  0  0  0  0  0  0  0  0  0  0
   -1.9193    2.2104    0.0266 C   0  0  0  0  0  0  0  0  0  0  0  0
   -1.3380    3.0394   -0.6837 O   0  0  0  0  0  0  0  0  0  0  0  0
   -2.8051    2.4646    0.8877 O   0  0  0  0  0  1  0  0  0  0  0  0
   -3.5145    0.0820    1.0799 O   0  0  0  0  0  0  0  0  0  0  0  0
   -3.4812    1.0942    1.1748 H   0  0  0  0  0  0  0  0  0  0  0  0
  1 34  1  0  0  0  0
  2 31  1  0  0  0  0
  2  1  1  0  0  0  0
  3  2  2  0  0  0  0
  4  3  1  0  0  0  0
  4  5  1  0  0  0  0
  5  6  1  0  0  0  0
  6  1  2  0  0  0  0
  6  7  1  0  0  0  0
  7  8  1  0  0  0  0
  7 10  1  0  0  0  0
  9  7  1  0  0  0  0
 11  5  1  0  0  0  0
 11 13  1  0  0  0  0
 12 11  1  0  0  0  0
 14 11  1  0  0  0  0
 15  4  1  0  0  0  0
 16  3  1  0  0  0  0
 16 30  1  0  0  0  0
 17 16  1  0  0  0  0
 17 18  1  0  0  0  0
 18 23  1  0  0  0  0
 19 18  2  0  0  0  0
 19 20  1  0  0  0  0
 20 21  2  0  0  0  0
 21 22  1  0  0  0  0
 21 26  1  0  0  0  0
 22 25  1  0  0  0  0
 23 24  1  0  0  0  0
 23 22  2  0  0  0  0
 27 20  1  0  0  0  0
 28 19  1  0  0  0  0
 29 16  1  0  0  0  0
 31 33  1  0  0  0  0
 32 31  2  0  0  0  0
 34 35  1  0  0  0  0
M  END
>  <target>  (68)
-1.25

$$$$
-62.15834099
 OpenBabel07082014033D

 38 39  0  0  0  0  0  0  0  0999 V2000
   -1.3461   -1.1333    0.1818 C   0  0  0  0  0  0  0  0  0  0  0  0
   -0.0397   -1.0781    0.7045 C   0  0  0  0  0  0  0  0  0  0  0  0
    0.3528    0.0950    1.3524 C   0  0  0  0  0  0  0  0  0  0  0  0
   -0.5709    1.1122    1.5102 C   0  0  0  0  0  3  0  0  0  0  0  0
   -1.8217    1.0238    1.0496 N   0  0  0  0  0  0  0  0  0  0  0  0
   -2.2374   -0.0585    0.3770 C   0  0  0  0  0  0  0  0  0  0  0  0
   -3.6196   -0.1173   -0.1644 C   0  0  0  0  0  0  0  0  0  0  0  0
   -3.7949    0.6948   -0.8679 H   0  0  0  0  0  0  0  0  0  0  0  0
   -3.7548   -1.0639   -0.6791 H   0  0  0  0  0  0  0  0  0  0  0  0
   -4.3559   -0.0429    0.6343 H   0  0  0  0  0  0  0  0  0  0  0  0
   -2.7310    2.1302    1.2518 C   0  0  0  0  0  0  0  0  0  0  0  0
   -3.6134    1.7963    1.7976 H   0  0  0  0  0  0  0  0  0  0  0  0
   -2.2355    2.9135    1.8193 H   0  0  0  0  0  0  0  0  0  0  0  0
   -3.0489    2.5317    0.2895 H   0  0  0  0  0  0  0  0  0  0  0  0
   -0.2726    2.0223    2.0068 H   0  0  0  0  0  0  0  0  0  0  0  0
    1.7515    0.3923    1.8410 C   0  0  0  0  0  0  0  0  0  0  0  0
    2.1921    1.6584    1.3922 O   0  0  0  0  0  0  0  0  0  0  0  0
    2.7061    1.6570    0.0677 C   0  0  0  0  0  0  0  0  0  0  0  0
    1.6789    1.2503   -0.9592 C   0  0  0  0  0  0  0  0  0  0  0  0
    0.5698    2.0569   -1.1890 C   0  0  0  0  0  0  0  0  0  0  0  0
   -0.4228    1.6514   -2.0626 C   0  0  0  0  0  0  0  0  0  0  0  0
   -0.3135    0.4395   -2.7253 C   0  0  0  0  0  0  0  0  0  0  0  0
    0.7976   -0.3591   -2.5176 C   0  0  0  0  0  0  0  0  0  0  0  0
    1.7871    0.0433   -1.6359 C   0  0  0  0  0  0  0  0  0  0  0  0
    2.6420   -0.5974   -1.4630 H   0  0  0  0  0  0  0  0  0  0  0  0
    0.8933   -1.3073   -3.0260 H   0  0  0  0  0  0  0  0  0  0  0  0
   -1.0875    0.1152   -3.4037 H   0  0  0  0  0  0  0  0  0  0  0  0
   -1.2785    2.2849   -2.2383 H   0  0  0  0  0  0  0  0  0  0  0  0
    0.4939    3.0009   -0.6709 H   0  0  0  0  0  0  0  0  0  0  0  0
    3.0357    2.6862   -0.0965 H   0  0  0  0  0  0  0  0  0  0  0  0
    3.5754    0.9857    0.0091 H   0  0  0  0  0  0  0  0  0  0  0  0
    2.4396   -0.4012    1.5375 H   0  0  0  0  0  0  0  0  0  0  0  0
    1.7507    0.4455    2.9340 H   0  0  0  0  0  0  0  0  0  0  0  0
    0.8688   -2.3048    0.5289 C   0  0  0  0  0  0  0  0  0  0  0  0
    1.8577   -2.4183    1.2649 O   0  0  0  0  0  1  0  0  0  0  0  0
    0.5103   -3.1338   -0.3510 O   0  0  0  0  0  0  0  0  0  0  0  0
   -1.7843   -2.1757   -0.5153 O   0  0  0  0  0  0  0  0  0  0  0  0
   -0.9816   -2.7901   -0.6151 H   0  0  0  0  0  0  0  0  0  0  0  0
  1  6  2  0  0  0  0
  1  2  1  0  0  0  0
  2  3  2  0  0  0  0
  3  4  1  0  0  0  0
  3 16  1  0  0  0  0
  4 15  1  0  0  0  0
  5 11  1  0  0  0  0
  5  4  1  0  0  0  0
  6  5  1  0  0  0  0
  7  6  1  0  0  0  0
  7 10  1  0  0  0  0
  8  7  1  0  0  0  0
  9  7  1  0  0  0  0
 11 12  1  0  0  0  0
 11 13  1  0  0  0  0
 14 11  1  0  0  0  0
 16 33  1  0  0  0  0
 17 16  1  0  0  0  0
 18 17  1  0  0  0  0
 19 18  1  0  0  0  0
 20 19  1  0  0  0  0
 20 29  1  0  0  0  0
 21 20  2  0  0  0  0
 22 23  2  0  0  0  0
 22 21  1  0  0  0  0
 23 24  1  0  0  0  0
 24 25  1  0  0  0  0
 24 19  2  0  0  0  0
 26 23  1  0  0  0  0
 27 22  1  0  0  0  0
 28 21  1  0  0  0  0
 30 18  1  0  0  0  0
 31 18  1  0  0  0  0
 32 16  1  0  0  0  0
 34  2  1  0  0  0  0
 34 35  1  0  0  0  0
 36 34  2  0  0  0  0
 37  1  1  0  0  0  0
 38 37  1  0  0  0  0
M  END
>  <target>  (69)
-1.35

$$$$
-52.54349966
 OpenBabel07082014033D

 32 32  0  0  0  0  0  0  0  0999 V2000
   -1.5753   -0.6301   -0.1035 C   0  0  0  0  0  0  0  0  0  0  0  0
   -0.2664   -0.9218    0.3247 C   0  0  0  0  0  0  0  0  0  0  0  0
    0.5255    0.1368    0.7757 C   0  0  0  0  0  0  0  0  0  0  0  0
   -0.0262    1.4034    0.8373 C   0  0  0  0  0  3  0  0  0  0  0  0
   -1.2881    1.6539    0.4751 N   0  0  0  0  0  0  0  0  0  0  0  0
   -2.0801    0.6834   -0.0021 C   0  0  0  0  0  0  0  0  0  0  0  0
   -3.4708    0.9918   -0.4243 C   0  0  0  0  0  0  0  0  0  0  0  0
   -3.4805    1.7337   -1.2211 H   0  0  0  0  0  0  0  0  0  0  0  0
   -3.9379    0.0807   -0.7866 H   0  0  0  0  0  0  0  0  0  0  0  0
   -4.0545    1.3787    0.4094 H   0  0  0  0  0  0  0  0  0  0  0  0
   -1.8023    3.0015    0.5882 C   0  0  0  0  0  0  0  0  0  0  0  0
   -1.0351    3.6542    0.9963 H   0  0  0  0  0  0  0  0  0  0  0  0
   -2.1035    3.3713   -0.3922 H   0  0  0  0  0  0  0  0  0  0  0  0
   -2.6712    3.0165    1.2463 H   0  0  0  0  0  0  0  0  0  0  0  0
    0.5794    2.2247    1.1881 H   0  0  0  0  0  0  0  0  0  0  0  0
    1.9712    0.0079    1.1870 C   0  0  0  0  0  0  0  0  0  0  0  0
    2.7475    1.1121    0.7816 O   0  0  0  0  0  0  0  0  0  0  0  0
    3.1476    1.0641   -0.5816 C   0  0  0  0  0  0  0  0  0  0  0  0
    2.0192    1.3123   -1.5407 C   0  0  0  0  0  0  0  0  0  0  0  0
    1.5917    0.4294   -2.4236 C   0  0  0  0  0  0  0  0  0  0  0  0
    0.7825    0.6408   -3.1011 H   0  0  0  0  0  0  0  0  0  0  0  0
    2.0372   -0.5491   -2.5098 H   0  0  0  0  0  0  0  0  0  0  0  0
    1.5592    2.2872   -1.4635 H   0  0  0  0  0  0  0  0  0  0  0  0
    3.6178    0.0940   -0.7963 H   0  0  0  0  0  0  0  0  0  0  0  0
    3.8971    1.8556   -0.6733 H   0  0  0  0  0  0  0  0  0  0  0  0
    2.0297   -0.0189    2.2800 H   0  0  0  0  0  0  0  0  0  0  0  0
    2.3889   -0.9310    0.8099 H   0  0  0  0  0  0  0  0  0  0  0  0
    0.2065   -2.3823    0.2831 C   0  0  0  0  0  0  0  0  0  0  0  0
   -0.4590   -3.1537   -0.4608 O   0  0  0  0  0  0  0  0  0  0  0  0
    1.1714   -2.7084    0.9859 O   0  0  0  0  0  1  0  0  0  0  0  0
   -2.3745   -1.5595   -0.6159 O   0  0  0  0  0  0  0  0  0  0  0  0
   -1.8058   -2.3976   -0.6852 H   0  0  0  0  0  0  0  0  0  0  0  0
  1  6  2  0  0  0  0
  1  2  1  0  0  0  0
  2  3  2  0  0  0  0
  3  4  1  0  0  0  0
  3 16  1  0  0  0  0
  4 15  1  0  0  0  0
  5 11  1  0  0  0  0
  5  4  1  0  0  0  0
  6  5  1  0  0  0  0
  7  6  1  0  0  0  0
  7 10  1  0  0  0  0
  8  7  1  0  0  0  0
  9  7  1  0  0  0  0
 11 12  1  0  0  0  0
 11 14  1  0  0  0  0
 13 11  1  0  0  0  0
 16 26  1  0  0  0  0
 17 16  1  0  0  0  0
 18 17  1  0  0  0  0
 19 23  1  0  0  0  0
 19 18  1  0  0  0  0
 20 19  2  0  0  0  0
 21 20  1  0  0  0  0
 22 20  1  0  0  0  0
 24 18  1  0  0  0  0
 25 18  1  0  0  0  0
 27 16  1  0  0  0  0
 28  2  1  0  0  0  0
 28 30  1  0  0  0  0
 29 28  2  0  0  0  0
 31  1  1  0  0  0  0
 32 31  1  0  0  0  0
M  END
>  <target>  (70)
-1.3

$$$$
-43.47175896
 OpenBabel07082014033D

 26 26  0  0  0  0  0  0  0  0999 V2000
   -0.4493   -1.1905    0.0373 C   0  0  0  0  0  0  0  0  0  0  0  0
    0.6805   -0.3535   -0.0078 C   0  0  0  0  0  0  0  0  0  0  0  0
    0.4746    1.0305   -0.0379 C   0  0  0  0  0  0  0  0  0  0  0  0
   -0.8233    1.5059   -0.0685 C   0  0  0  0  0  3  0  0  0  0  0  0
   -1.8856    0.6940   -0.0702 N   0  0  0  0  0  0  0  0  0  0  0  0
   -1.7462   -0.6370   -0.0103 C   0  0  0  0  0  0  0  0  0  0  0  0
   -2.9442   -1.5166    0.0073 C   0  0  0  0  0  0  0  0  0  0  0  0
   -2.6193   -2.5512    0.0668 H   0  0  0  0  0  0  0  0  0  0  0  0
   -3.5771   -1.2964    0.8653 H   0  0  0  0  0  0  0  0  0  0  0  0
   -3.5362   -1.3856   -0.8971 H   0  0  0  0  0  0  0  0  0  0  0  0
   -3.2112    1.2703   -0.1280 C   0  0  0  0  0  0  0  0  0  0  0  0
   -3.7798    0.9927    0.7598 H   0  0  0  0  0  0  0  0  0  0  0  0
   -3.1369    2.3531   -0.1813 H   0  0  0  0  0  0  0  0  0  0  0  0
   -3.7407    0.9038   -1.0074 H   0  0  0  0  0  0  0  0  0  0  0  0
   -0.9842    2.5715   -0.1068 H   0  0  0  0  0  0  0  0  0  0  0  0
    1.5912    2.0370   -0.0442 C   0  0  0  0  0  0  0  0  0  0  0  0
    1.1060    3.3613    0.3235 N   0  0  0  0  0  0  0  0  0  0  0  0
    1.8231    4.0473    0.1219 H   0  0  0  0  0  0  0  0  0  0  0  0
    0.9326    3.3916    1.3233 H   0  0  0  0  0  0  0  0  0  0  0  0
    1.9960    2.0768   -1.0605 H   0  0  0  0  0  0  0  0  0  0  0  0
    2.4089    1.6661    0.5901 H   0  0  0  0  0  0  0  0  0  0  0  0
    2.0709   -1.0006   -0.0560 C   0  0  0  0  0  0  0  0  0  0  0  0
    3.0299   -0.3085   -0.4198 O   0  0  0  0  0  0  0  0  0  0  0  0
    2.1247   -2.2220    0.2627 O   0  0  0  0  0  1  0  0  0  0  0  0
   -0.3466   -2.5139    0.1236 O   0  0  0  0  0  0  0  0  0  0  0  0
    0.6495   -2.6998    0.2086 H   0  0  0  0  0  0  0  0  0  0  0  0
  1 25  1  0  0  0  0
  2  1  1  0  0  0  0
  3  2  2  0  0  0  0
  4  3  1  0  0  0  0
  5  4  1  0  0  0  0
  5  6  1  0  0  0  0
  6  7  1  0  0  0  0
  6  1  2  0  0  0  0
  7  8  1  0  0  0  0
  7  9  1  0  0  0  0
 10  7  1  0  0  0  0
 11  5  1  0  0  0  0
 11 12  1  0  0  0  0
 13 11  1  0  0  0  0
 14 11  1  0  0  0  0
 15  4  1  0  0  0  0
 16  3  1  0  0  0  0
 16 17  1  0  0  0  0
 16 21  1  0  0  0  0
 17 19  1  0  0  0  0
 18 17  1  0  0  0  0
 20 16  1  0  0  0  0
 22  2  1  0  0  0  0
 22 24  1  0  0  0  0
 23 22  2  0  0  0  0
 25 26  1  0  0  0  0
M  END
>  <target>  (71)
-1.16

$$$$
-46.63831507
 OpenBabel07082014033D

 29 29  0  0  0  0  0  0  0  0999 V2000
    1.3523    0.6700    0.1029 C   0  0  0  0  0  0  0  0  0  0  0  0
   -0.0303    0.8493   -0.0867 C   0  0  0  0  0  0  0  0  0  0  0  0
   -0.8206   -0.2863   -0.2915 C   0  0  0  0  0  0  0  0  0  0  0  0
   -0.2016   -1.5217   -0.3473 C   0  0  0  0  0  3  0  0  0  0  0  0
    1.1196   -1.6697   -0.2090 N   0  0  0  0  0  0  0  0  0  0  0  0
    1.9189   -0.6190    0.0220 C   0  0  0  0  0  0  0  0  0  0  0  0
    3.3827   -0.8137    0.1923 C   0  0  0  0  0  0  0  0  0  0  0  0
    3.8239   -1.2505   -0.7021 H   0  0  0  0  0  0  0  0  0  0  0  0
    3.5934   -1.4716    1.0338 H   0  0  0  0  0  0  0  0  0  0  0  0
    3.8461    0.1511    0.3765 H   0  0  0  0  0  0  0  0  0  0  0  0
    1.6926   -2.9949   -0.3022 C   0  0  0  0  0  0  0  0  0  0  0  0
    2.1948   -3.2531    0.6303 H   0  0  0  0  0  0  0  0  0  0  0  0
    2.4229   -3.0311   -1.1106 H   0  0  0  0  0  0  0  0  0  0  0  0
    0.9066   -3.7195   -0.4974 H   0  0  0  0  0  0  0  0  0  0  0  0
   -0.8081   -2.3980   -0.5138 H   0  0  0  0  0  0  0  0  0  0  0  0
   -2.3141   -0.2462   -0.4635 C   0  0  0  0  0  0  0  0  0  0  0  0
   -2.9104   -1.5380   -0.1596 N   0  0  0  0  0  0  0  0  0  0  0  0
   -3.8211   -1.5903   -0.6028 H   0  0  0  0  0  0  0  0  0  0  0  0
   -3.0722   -1.7504    1.2690 C   0  0  0  0  0  0  0  0  0  0  0  0
   -3.6927   -0.9818    1.7519 H   0  0  0  0  0  0  0  0  0  0  0  0
   -2.0919   -1.7361    1.7439 H   0  0  0  0  0  0  0  0  0  0  0  0
   -3.5293   -2.7242    1.4289 H   0  0  0  0  0  0  0  0  0  0  0  0
   -2.5205    0.0152   -1.5053 H   0  0  0  0  0  0  0  0  0  0  0  0
   -2.7259    0.5723    0.1458 H   0  0  0  0  0  0  0  0  0  0  0  0
   -0.5878    2.2788   -0.0963 C   0  0  0  0  0  0  0  0  0  0  0  0
   -1.6967    2.4739   -0.6096 O   0  0  0  0  0  0  0  0  0  0  0  0
    0.1578    3.1662    0.4059 O   0  0  0  0  0  1  0  0  0  0  0  0
    2.1685    1.6886    0.3617 O   0  0  0  0  0  0  0  0  0  0  0  0
    1.5647    2.5006    0.4494 H   0  0  0  0  0  0  0  0  0  0  0  0
  1 28  1  0  0  0  0
  2  1  1  0  0  0  0
  3  2  2  0  0  0  0
  4  3  1  0  0  0  0
  4  5  1  0  0  0  0
  5  6  1  0  0  0  0
  6  1  2  0  0  0  0
  6  7  1  0  0  0  0
  7 10  1  0  0  0  0
  7  9  1  0  0  0  0
  8  7  1  0  0  0  0
 11  5  1  0  0  0  0
 11 12  1  0  0  0  0
 13 11  1  0  0  0  0
 14 11  1  0  0  0  0
 15  4  1  0  0  0  0
 16  3  1  0  0  0  0
 16 17  1  0  0  0  0
 16 24  1  0  0  0  0
 17 19  1  0  0  0  0
 18 17  1  0  0  0  0
 19 22  1  0  0  0  0
 19 21  1  0  0  0  0
 19 20  1  0  0  0  0
 23 16  1  0  0  0  0
 25  2  1  0  0  0  0
 25 27  1  0  0  0  0
 26 25  2  0  0  0  0
 28 29  1  0  0  0  0
M  END
>  <target>  (72)
-1.13

$$$$
-49.80498653
 OpenBabel07082014033D

 32 32  0  0  0  0  0  0  0  0999 V2000
   -1.7046   -0.4586   -0.1844 C   0  0  0  0  0  0  0  0  0  0  0  0
   -0.4015   -0.8622    0.1615 C   0  0  0  0  0  0  0  0  0  0  0  0
    0.5290    0.1284    0.4930 C   0  0  0  0  0  0  0  0  0  0  0  0
    0.1127    1.4472    0.5105 C   0  0  0  0  0  3  0  0  0  0  0  0
   -1.1411    1.8090    0.2224 N   0  0  0  0  0  0  0  0  0  0  0  0
   -2.0641    0.9040   -0.1316 C   0  0  0  0  0  0  0  0  0  0  0  0
   -3.4465    1.3350   -0.4678 C   0  0  0  0  0  0  0  0  0  0  0  0
   -3.4457    2.0252   -1.3098 H   0  0  0  0  0  0  0  0  0  0  0  0
   -3.9171    1.8301    0.3800 H   0  0  0  0  0  0  0  0  0  0  0  0
   -4.0324    0.4596   -0.7322 H   0  0  0  0  0  0  0  0  0  0  0  0
   -1.5018    3.2087    0.2857 C   0  0  0  0  0  0  0  0  0  0  0  0
   -2.3099    3.3552    1.0023 H   0  0  0  0  0  0  0  0  0  0  0  0
   -1.8385    3.5538   -0.6920 H   0  0  0  0  0  0  0  0  0  0  0  0
   -0.6395    3.7939    0.5939 H   0  0  0  0  0  0  0  0  0  0  0  0
    0.8277    2.2117    0.7701 H   0  0  0  0  0  0  0  0  0  0  0  0
    1.9657   -0.1531    0.8383 C   0  0  0  0  0  0  0  0  0  0  0  0
    2.7906    1.0259    0.6232 N   0  0  0  0  0  0  0  0  0  0  0  0
    3.6404    0.9431    1.1704 H   0  0  0  0  0  0  0  0  0  0  0  0
    3.1502    1.2556   -0.7699 C   0  0  0  0  0  0  0  0  0  0  0  0
    4.2029    0.2992   -1.3332 C   0  0  0  0  0  0  0  0  0  0  0  0
    3.8509   -0.7309   -1.3030 H   0  0  0  0  0  0  0  0  0  0  0  0
    5.1238    0.3637   -0.7566 H   0  0  0  0  0  0  0  0  0  0  0  0
    4.4229    0.5516   -2.3669 H   0  0  0  0  0  0  0  0  0  0  0  0
    3.5279    2.2797   -0.8351 H   0  0  0  0  0  0  0  0  0  0  0  0
    2.2374    1.1851   -1.3663 H   0  0  0  0  0  0  0  0  0  0  0  0
    2.3011   -1.0392    0.2836 H   0  0  0  0  0  0  0  0  0  0  0  0
    2.0041   -0.4296    1.8961 H   0  0  0  0  0  0  0  0  0  0  0  0
   -0.0832   -2.3630    0.1851 C   0  0  0  0  0  0  0  0  0  0  0  0
    0.9157   -2.7439    0.8084 O   0  0  0  0  0  1  0  0  0  0  0  0
   -0.8979   -3.1110   -0.4256 O   0  0  0  0  0  0  0  0  0  0  0  0
   -2.6357   -1.3281   -0.5689 O   0  0  0  0  0  0  0  0  0  0  0  0
   -2.1620   -2.2259   -0.6107 H   0  0  0  0  0  0  0  0  0  0  0  0
  1  6  2  0  0  0  0
  1  2  1  0  0  0  0
  2 28  1  0  0  0  0
  2  3  2  0  0  0  0
  3  4  1  0  0  0  0
  3 16  1  0  0  0  0
  4 15  1  0  0  0  0
  5 11  1  0  0  0  0
  5  4  1  0  0  0  0
  6  5  1  0  0  0  0
  7  6  1  0  0  0  0
  7  9  1  0  0  0  0
  8  7  1  0  0  0  0
 10  7  1  0  0  0  0
 11 14  1  0  0  0  0
 11 12  1  0  0  0  0
 13 11  1  0  0  0  0
 16 27  1  0  0  0  0
 17 16  1  0  0  0  0
 17 18  1  0  0  0  0
 19 17  1  0  0  0  0
 20 21  1  0  0  0  0
 20 19  1  0  0  0  0
 20 22  1  0  0  0  0
 23 20  1  0  0  0  0
 24 19  1  0  0  0  0
 25 19  1  0  0  0  0
 26 16  1  0  0  0  0
 28 29  1  0  0  0  0
 30 28  2  0  0  0  0
 31  1  1  0  0  0  0
 32 31  1  0  0  0  0
M  END
>  <target>  (73)
-1.08

$$$$
-58.70351261
 OpenBabel07082014033D

 30 30  0  0  0  0  0  0  0  0999 V2000
   -1.7197   -0.8411    0.2832 C   0  0  0  0  0  0  0  0  0  0  0  0
   -0.5293   -0.9277   -0.4623 C   0  0  0  0  0  0  0  0  0  0  0  0
   -0.1262    0.1986   -1.1874 C   0  0  0  0  0  0  0  0  0  0  0  0
   -0.9387    1.3162   -1.1756 C   0  0  0  0  0  3  0  0  0  0  0  0
   -2.0786    1.3738   -0.4815 N   0  0  0  0  0  0  0  0  0  0  0  0
   -2.4892    0.3371    0.2629 C   0  0  0  0  0  0  0  0  0  0  0  0
   -3.7480    0.4346    1.0503 C   0  0  0  0  0  0  0  0  0  0  0  0
   -3.6892    1.2497    1.7690 H   0  0  0  0  0  0  0  0  0  0  0  0
   -3.8929   -0.4986    1.5863 H   0  0  0  0  0  0  0  0  0  0  0  0
   -4.6019    0.6058    0.3973 H   0  0  0  0  0  0  0  0  0  0  0  0
   -2.8677    2.5870   -0.5081 C   0  0  0  0  0  0  0  0  0  0  0  0
   -2.9215    3.0146    0.4929 H   0  0  0  0  0  0  0  0  0  0  0  0
   -2.4016    3.3082   -1.1736 H   0  0  0  0  0  0  0  0  0  0  0  0
   -3.8761    2.3648   -0.8564 H   0  0  0  0  0  0  0  0  0  0  0  0
   -0.6457    2.2015   -1.7166 H   0  0  0  0  0  0  0  0  0  0  0  0
    1.2024    0.3062   -1.8832 C   0  0  0  0  0  0  0  0  0  0  0  0
    2.3135    0.1718   -0.9518 N   0  0  0  0  0  0  0  0  0  0  0  0
    1.9851    0.7865    0.6273 P   0  0  2  0  0  0  0  0  0  0  0  0
    1.4251   -0.2490    1.5545 O   0  0  0  0  0  1  0  0  0  0  0  0
    1.2715    2.0989    0.5113 O   0  0  0  0  0  0  0  0  0  0  0  0
    3.5259    1.0550    1.1122 O   0  0  0  0  0  0  0  0  0  0  0  0
    3.8859    1.7953    0.6164 H   0  0  0  0  0  0  0  0  0  0  0  0
    2.5339   -0.8105   -0.8326 H   0  0  0  0  0  0  0  0  0  0  0  0
    1.3038   -0.4659   -2.6492 H   0  0  0  0  0  0  0  0  0  0  0  0
    1.2862    1.2973   -2.3383 H   0  0  0  0  0  0  0  0  0  0  0  0
    0.2542   -2.2440   -0.4414 C   0  0  0  0  0  0  0  0  0  0  0  0
   -0.1353   -3.1190    0.3810 O   0  0  0  0  0  1  0  0  0  0  0  0
    1.1773   -2.4074   -1.2533 O   0  0  0  0  0  0  0  0  0  0  0  0
   -2.1721   -1.8544    1.0201 O   0  0  0  0  0  0  0  0  0  0  0  0
   -1.4514   -2.5702    0.9495 H   0  0  0  0  0  0  0  0  0  0  0  0
  1 29  1  0  0  0  0
  2 26  1  0  0  0  0
  2  1  1  0  0  0  0
  3  4  1  0  0  0  0
  3  2  2  0  0  0  0
  4  5  1  0  0  0  0
  5  6  1  0  0  0  0
  6  1  2  0  0  0  0
  6  7  1  0  0  0  0
  7  9  1  0  0  0  0
  7  8  1  0  0  0  0
 10  7  1  0  0  0  0
 11  5  1  0  0  0  0
 11 12  1  0  0  0  0
 13 11  1  0  0  0  0
 14 11  1  0  0  0  0
 15  4  1  0  0  0  0
 16  3  1  0  0  0  0
 16 17  1  0  0  0  0
 17 23  1  0  0  0  0
 17 18  1  0  0  0  0
 18 20  2  6  0  0  0
 18 21  1  0  0  0  0
 18 19  1  0  0  0  0
 22 21  1  0  0  0  0
 24 16  1  0  0  0  0
 25 16  1  0  0  0  0
 26 27  1  0  0  0  0
 28 26  2  0  0  0  0
 30 29  1  0  0  0  0
M  END
>  <target>  (74)
-1.15

$$$$
-58.80135893
 OpenBabel07082014033D

 29 29  0  0  0  0  0  0  0  0999 V2000
   -1.6755   -0.9119   -0.2395 C   0  0  0  0  0  0  0  0  0  0  0  0
   -0.4604   -0.8759    0.4721 C   0  0  0  0  0  0  0  0  0  0  0  0
   -0.1193    0.3134    1.1261 C   0  0  0  0  0  0  0  0  0  0  0  0
   -1.0066    1.3713    1.0759 C   0  0  0  0  0  3  0  0  0  0  0  0
   -2.1699    1.3103    0.4207 N   0  0  0  0  0  0  0  0  0  0  0  0
   -2.5280    0.2065   -0.2522 C   0  0  0  0  0  0  0  0  0  0  0  0
   -3.8181    0.1698   -0.9933 C   0  0  0  0  0  0  0  0  0  0  0  0
   -3.9121   -0.7986   -1.4752 H   0  0  0  0  0  0  0  0  0  0  0  0
   -3.8481    0.9477   -1.7536 H   0  0  0  0  0  0  0  0  0  0  0  0
   -4.6583    0.3120   -0.3160 H   0  0  0  0  0  0  0  0  0  0  0  0
   -3.0453    2.4629    0.4144 C   0  0  0  0  0  0  0  0  0  0  0  0
   -3.1708    2.8284   -0.6045 H   0  0  0  0  0  0  0  0  0  0  0  0
   -2.6102    3.2528    1.0202 H   0  0  0  0  0  0  0  0  0  0  0  0
   -4.0205    2.1891    0.8170 H   0  0  0  0  0  0  0  0  0  0  0  0
   -0.7597    2.3042    1.5560 H   0  0  0  0  0  0  0  0  0  0  0  0
    1.1987    0.5434    1.8142 C   0  0  0  0  0  0  0  0  0  0  0  0
    2.3449    0.3485    0.9468 N   0  0  0  0  0  0  0  0  0  0  0  0
    2.5435   -0.6402    0.8708 H   0  0  0  0  0  0  0  0  0  0  0  0
    2.0328    0.8033   -0.6568 S   0  0  0  0  0  0  0  0  0  0  0  0
    1.2320    2.0251   -0.5877 O   0  0  0  0  0  1  0  0  0  0  0  0
    1.3203   -0.2896   -1.3339 O   0  0  0  0  0  1  0  0  0  0  0  0
    3.3570    1.0250   -1.2344 O   0  0  0  0  0  1  0  0  0  0  0  0
    1.3081   -0.1351    2.6646 H   0  0  0  0  0  0  0  0  0  0  0  0
    1.2463    1.5813    2.1533 H   0  0  0  0  0  0  0  0  0  0  0  0
    0.4147   -2.1339    0.4864 C   0  0  0  0  0  0  0  0  0  0  0  0
    1.3612   -2.2013    1.2865 O   0  0  0  0  0  1  0  0  0  0  0  0
    0.0720   -3.0698   -0.2872 O   0  0  0  0  0  0  0  0  0  0  0  0
   -2.0730   -1.9907   -0.9134 O   0  0  0  0  0  0  0  0  0  0  0  0
   -1.2987   -2.6457   -0.8363 H   0  0  0  0  0  0  0  0  0  0  0  0
  1  2  1  0  0  0  0
  2 25  1  0  0  0  0
  2  3  2  0  0  0  0
  3 16  1  0  0  0  0
  4  3  1  0  0  0  0
  4 15  1  0  0  0  0
  5  4  1  0  0  0  0
  6  1  2  0  0  0  0
  6  5  1  0  0  0  0
  7 10  1  0  0  0  0
  7  6  1  0  0  0  0
  8  7  1  0  0  0  0
  9  7  1  0  0  0  0
 11  5  1  0  0  0  0
 11 14  1  0  0  0  0
 11 13  1  0  0  0  0
 12 11  1  0  0  0  0
 16 24  1  0  0  0  0
 16 23  1  0  0  0  0
 17 16  1  0  0  0  0
 18 17  1  0  0  0  0
 19 20  1  0  0  0  0
 19 17  1  0  0  0  0
 21 19  1  0  0  0  0
 22 19  1  0  0  0  0
 25 26  1  0  0  0  0
 27 25  2  0  0  0  0
 28 29  1  0  0  0  0
 28  1  1  0  0  0  0
M  END
>  <target>  (75)
-1.06

$$$$
-58.36750358
 OpenBabel07082014033D

 36 37  0  0  0  0  0  0  0  0999 V2000
   -1.8686   -0.5564   -0.6764 C   0  0  0  0  0  0  0  0  0  0  0  0
   -0.8611   -0.9455    0.2245 C   0  0  0  0  0  0  0  0  0  0  0  0
   -0.5137   -0.0595    1.2520 C   0  0  0  0  0  0  0  0  0  0  0  0
   -1.2207    1.1222    1.3669 C   0  0  0  0  0  3  0  0  0  0  0  0
   -2.2166    1.4527    0.5351 N   0  0  0  0  0  0  0  0  0  0  0  0
   -2.5546    0.6632   -0.4922 C   0  0  0  0  0  0  0  0  0  0  0  0
   -3.6385    1.0674   -1.4240 C   0  0  0  0  0  0  0  0  0  0  0  0
   -4.5851    1.1766   -0.8968 H   0  0  0  0  0  0  0  0  0  0  0  0
   -3.7490    0.3032   -2.1877 H   0  0  0  0  0  0  0  0  0  0  0  0
   -3.4042    2.0154   -1.9056 H   0  0  0  0  0  0  0  0  0  0  0  0
   -2.9238    2.6986    0.7370 C   0  0  0  0  0  0  0  0  0  0  0  0
   -3.9887    2.5072    0.8698 H   0  0  0  0  0  0  0  0  0  0  0  0
   -2.5401    3.2026    1.6200 H   0  0  0  0  0  0  0  0  0  0  0  0
   -2.7933    3.3476   -0.1294 H   0  0  0  0  0  0  0  0  0  0  0  0
   -0.9929    1.8193    2.1581 H   0  0  0  0  0  0  0  0  0  0  0  0
    0.6381   -0.3019    2.2008 C   0  0  0  0  0  0  0  0  0  0  0  0
    1.8831   -0.6049    1.5279 N   0  0  0  0  0  0  0  0  0  0  0  0
    2.3312    0.1784    0.4797 C   0  0  0  0  0  0  0  0  0  0  0  0
    3.1355   -0.3950   -0.5093 C   0  0  0  0  0  0  0  0  0  0  0  0
    3.6551    0.3707   -1.5328 C   0  0  0  0  0  0  0  0  0  0  0  0
    3.3838    1.7281   -1.6007 C   0  0  0  0  0  0  0  0  0  0  0  0
    2.5928    2.3078   -0.6238 C   0  0  0  0  0  0  0  0  0  0  0  0
    2.0706    1.5490    0.4061 C   0  0  0  0  0  0  0  0  0  0  0  0
    1.4718    2.0250    1.1644 H   0  0  0  0  0  0  0  0  0  0  0  0
    2.3805    3.3659   -0.6632 H   0  0  0  0  0  0  0  0  0  0  0  0
    3.7862    2.3229   -2.4063 H   0  0  0  0  0  0  0  0  0  0  0  0
    4.2699   -0.0990   -2.2876 H   0  0  0  0  0  0  0  0  0  0  0  0
    3.3373   -1.4579   -0.4663 H   0  0  0  0  0  0  0  0  0  0  0  0
    1.9818   -1.5963    1.3490 H   0  0  0  0  0  0  0  0  0  0  0  0
    0.4038   -1.1603    2.8337 H   0  0  0  0  0  0  0  0  0  0  0  0
    0.7810    0.5762    2.8364 H   0  0  0  0  0  0  0  0  0  0  0  0
   -0.2633   -2.3542    0.0688 C   0  0  0  0  0  0  0  0  0  0  0  0
    0.2798   -2.8732    1.0518 O   0  0  0  0  0  1  0  0  0  0  0  0
   -0.4177   -2.8976   -1.0587 O   0  0  0  0  0  0  0  0  0  0  0  0
   -2.2163   -1.3050   -1.7177 O   0  0  0  0  0  0  0  0  0  0  0  0
   -1.5758   -2.0937   -1.7104 H   0  0  0  0  0  0  0  0  0  0  0  0
  1  6  2  0  0  0  0
  1  2  1  0  0  0  0
  2  3  2  0  0  0  0
  3  4  1  0  0  0  0
  3 16  1  0  0  0  0
  4 15  1  0  0  0  0
  5 11  1  0  0  0  0
  5  4  1  0  0  0  0
  6  5  1  0  0  0  0
  7  8  1  0  0  0  0
  7  6  1  0  0  0  0
  9  7  1  0  0  0  0
 10  7  1  0  0  0  0
 11 12  1  0  0  0  0
 11 13  1  0  0  0  0
 14 11  1  0  0  0  0
 16 30  1  0  0  0  0
 16 31  1  0  0  0  0
 17 16  1  0  0  0  0
 18 17  1  0  0  0  0
 19 28  1  0  0  0  0
 19 18  2  0  0  0  0
 20 19  1  0  0  0  0
 21 20  2  0  0  0  0
 21 22  1  0  0  0  0
 22 23  2  0  0  0  0
 23 18  1  0  0  0  0
 23 24  1  0  0  0  0
 25 22  1  0  0  0  0
 26 21  1  0  0  0  0
 27 20  1  0  0  0  0
 29 17  1  0  0  0  0
 32  2  1  0  0  0  0
 32 33  1  0  0  0  0
 34 32  2  0  0  0  0
 35 36  1  0  0  0  0
 35  1  1  0  0  0  0
M  END
>  <target>  (76)
-1.19

$$$$
-61.52689797
 OpenBabel07082014033D

 39 40  0  0  0  0  0  0  0  0999 V2000
   -0.9680   -1.2685   -0.3184 C   0  0  0  0  0  0  0  0  0  0  0  0
    0.2812   -0.8460   -0.8099 C   0  0  0  0  0  0  0  0  0  0  0  0
    0.3491    0.3994   -1.4521 C   0  0  0  0  0  0  0  0  0  0  0  0
   -0.8211    1.1175   -1.6131 C   0  0  0  0  0  3  0  0  0  0  0  0
   -2.0066    0.6890   -1.1627 N   0  0  0  0  0  0  0  0  0  0  0  0
   -2.1169   -0.4693   -0.5030 C   0  0  0  0  0  0  0  0  0  0  0  0
   -3.4350   -0.9122    0.0202 C   0  0  0  0  0  0  0  0  0  0  0  0
   -3.3060   -1.8569    0.5399 H   0  0  0  0  0  0  0  0  0  0  0  0
   -3.8437   -0.1801    0.7141 H   0  0  0  0  0  0  0  0  0  0  0  0
   -4.1490   -1.0528   -0.7900 H   0  0  0  0  0  0  0  0  0  0  0  0
   -3.1805    1.5098   -1.3636 C   0  0  0  0  0  0  0  0  0  0  0  0
   -3.9448    0.9480   -1.9003 H   0  0  0  0  0  0  0  0  0  0  0  0
   -3.5879    1.8175   -0.4002 H   0  0  0  0  0  0  0  0  0  0  0  0
   -2.9184    2.3940   -1.9385 H   0  0  0  0  0  0  0  0  0  0  0  0
   -0.8062    2.0698   -2.1194 H   0  0  0  0  0  0  0  0  0  0  0  0
    1.6295    1.0520   -1.9278 C   0  0  0  0  0  0  0  0  0  0  0  0
    2.5863    1.3856   -0.8913 N   0  0  0  0  0  0  0  0  0  0  0  0
    3.0216    0.5315   -0.5581 H   0  0  0  0  0  0  0  0  0  0  0  0
    2.0730    2.1800    0.2147 C   0  0  0  0  0  0  0  0  0  0  0  0
    1.1205    1.4616    1.1429 C   0  0  0  0  0  0  0  0  0  0  0  0
    1.5305    0.3085    1.8028 C   0  0  0  0  0  0  0  0  0  0  0  0
    0.6509   -0.3998    2.6018 C   0  0  0  0  0  0  0  0  0  0  0  0
   -0.6521    0.0412    2.7609 C   0  0  0  0  0  0  0  0  0  0  0  0
   -1.0629    1.2026    2.1293 C   0  0  0  0  0  0  0  0  0  0  0  0
   -0.1820    1.9075    1.3271 C   0  0  0  0  0  0  0  0  0  0  0  0
   -0.5022    2.8173    0.8410 H   0  0  0  0  0  0  0  0  0  0  0  0
   -2.0699    1.5640    2.2725 H   0  0  0  0  0  0  0  0  0  0  0  0
   -1.3372   -0.5196    3.3778 H   0  0  0  0  0  0  0  0  0  0  0  0
    0.9858   -1.3022    3.0930 H   0  0  0  0  0  0  0  0  0  0  0  0
    2.5457   -0.0483    1.6800 H   0  0  0  0  0  0  0  0  0  0  0  0
    1.5876    3.0618   -0.2124 H   0  0  0  0  0  0  0  0  0  0  0  0
    2.9462    2.5134    0.7858 H   0  0  0  0  0  0  0  0  0  0  0  0
    1.3802    1.9793   -2.4523 H   0  0  0  0  0  0  0  0  0  0  0  0
    2.1406    0.3783   -2.6188 H   0  0  0  0  0  0  0  0  0  0  0  0
    1.4878   -1.7798   -0.6307 C   0  0  0  0  0  0  0  0  0  0  0  0
    2.5601   -1.4849   -1.1715 O   0  0  0  0  0  0  0  0  0  0  0  0
    1.2917   -2.8218    0.0588 O   0  0  0  0  0  1  0  0  0  0  0  0
   -1.1261   -2.4160    0.3299 O   0  0  0  0  0  0  0  0  0  0  0  0
   -0.1892   -2.8279    0.3650 H   0  0  0  0  0  0  0  0  0  0  0  0
  1 38  1  0  0  0  0
  2 35  1  0  0  0  0
  2  1  1  0  0  0  0
  3  2  2  0  0  0  0
  4  3  1  0  0  0  0
  4  5  1  0  0  0  0
  5  6  1  0  0  0  0
  6  1  2  0  0  0  0
  6  7  1  0  0  0  0
  7  8  1  0  0  0  0
  7  9  1  0  0  0  0
 10  7  1  0  0  0  0
 11  5  1  0  0  0  0
 11 13  1  0  0  0  0
 12 11  1  0  0  0  0
 14 11  1  0  0  0  0
 15  4  1  0  0  0  0
 16  3  1  0  0  0  0
 16 17  1  0  0  0  0
 17 18  1  0  0  0  0
 17 19  1  0  0  0  0
 19 32  1  0  0  0  0
 19 20  1  0  0  0  0
 20 25  2  0  0  0  0
 20 21  1  0  0  0  0
 21 22  2  0  0  0  0
 22 23  1  0  0  0  0
 22 29  1  0  0  0  0
 23 28  1  0  0  0  0
 24 27  1  0  0  0  0
 24 23  2  0  0  0  0
 25 24  1  0  0  0  0
 26 25  1  0  0  0  0
 30 21  1  0  0  0  0
 31 19  1  0  0  0  0
 33 16  1  0  0  0  0
 34 16  1  0  0  0  0
 35 37  1  0  0  0  0
 36 35  2  0  0  0  0
 38 39  1  0  0  0  0
M  END
>  <target>  (77)
-1.31

$$$$
-51.91203783
 OpenBabel07082014033D

 33 33  0  0  0  0  0  0  0  0999 V2000
   -1.0756   -1.1725   -0.0991 C   0  0  0  0  0  0  0  0  0  0  0  0
    0.2303   -0.8809    0.3389 C   0  0  0  0  0  0  0  0  0  0  0  0
    0.4584    0.3615    0.9473 C   0  0  0  0  0  0  0  0  0  0  0  0
   -0.6098    1.2290    1.0881 C   0  0  0  0  0  3  0  0  0  0  0  0
   -1.8373    0.9497    0.6363 N   0  0  0  0  0  0  0  0  0  0  0  0
   -2.1056   -0.2173    0.0388 C   0  0  0  0  0  0  0  0  0  0  0  0
   -3.4752   -0.5073   -0.4591 C   0  0  0  0  0  0  0  0  0  0  0  0
   -3.7809    0.2241   -1.2055 H   0  0  0  0  0  0  0  0  0  0  0  0
   -3.4838   -1.4953   -0.9100 H   0  0  0  0  0  0  0  0  0  0  0  0
   -4.1981   -0.4874    0.3550 H   0  0  0  0  0  0  0  0  0  0  0  0
   -2.8905    1.9290    0.7919 C   0  0  0  0  0  0  0  0  0  0  0  0
   -3.2764    2.2195   -0.1853 H   0  0  0  0  0  0  0  0  0  0  0  0
   -3.7089    1.5102    1.3778 H   0  0  0  0  0  0  0  0  0  0  0  0
   -2.5037    2.8092    1.2984 H   0  0  0  0  0  0  0  0  0  0  0  0
   -0.4699    2.1850    1.5673 H   0  0  0  0  0  0  0  0  0  0  0  0
    1.8095    0.8566    1.4114 C   0  0  0  0  0  0  0  0  0  0  0  0
    2.7128    1.2484    0.3445 N   0  0  0  0  0  0  0  0  0  0  0  0
    3.0749    0.4076   -0.0966 H   0  0  0  0  0  0  0  0  0  0  0  0
    2.1567    2.1486   -0.6536 C   0  0  0  0  0  0  0  0  0  0  0  0
    1.1983    1.5232   -1.6288 C   0  0  0  0  0  0  0  0  0  0  0  0
    0.0492    2.0518   -2.0076 C   0  0  0  0  0  0  0  0  0  0  0  0
   -0.5865    1.5696   -2.7306 H   0  0  0  0  0  0  0  0  0  0  0  0
   -0.2818    3.0030   -1.6259 H   0  0  0  0  0  0  0  0  0  0  0  0
    1.5252    0.5684   -2.0279 H   0  0  0  0  0  0  0  0  0  0  0  0
    3.0113    2.5380   -1.2205 H   0  0  0  0  0  0  0  0  0  0  0  0
    1.6855    2.9870   -0.1346 H   0  0  0  0  0  0  0  0  0  0  0  0
    1.6651    1.7282    2.0573 H   0  0  0  0  0  0  0  0  0  0  0  0
    2.3143    0.0724    1.9784 H   0  0  0  0  0  0  0  0  0  0  0  0
    1.3243   -1.9363    0.1108 C   0  0  0  0  0  0  0  0  0  0  0  0
    2.5091   -1.6140    0.2529 O   0  0  0  0  0  1  0  0  0  0  0  0
    0.9227   -3.0852   -0.2316 O   0  0  0  0  0  0  0  0  0  0  0  0
   -1.3964   -2.3352   -0.6563 O   0  0  0  0  0  0  0  0  0  0  0  0
   -0.5457   -2.8978   -0.6037 H   0  0  0  0  0  0  0  0  0  0  0  0
  1  6  2  0  0  0  0
  1  2  1  0  0  0  0
  2  3  2  0  0  0  0
  3  4  1  0  0  0  0
  3 16  1  0  0  0  0
  4 15  1  0  0  0  0
  5 11  1  0  0  0  0
  5  4  1  0  0  0  0
  6  5  1  0  0  0  0
  7  6  1  0  0  0  0
  7 10  1  0  0  0  0
  8  7  1  0  0  0  0
  9  7  1  0  0  0  0
 11 14  1  0  0  0  0
 11 13  1  0  0  0  0
 12 11  1  0  0  0  0
 16 28  1  0  0  0  0
 16 27  1  0  0  0  0
 17 16  1  0  0  0  0
 18 17  1  0  0  0  0
 19 26  1  0  0  0  0
 19 17  1  0  0  0  0
 20 19  1  0  0  0  0
 21 20  2  0  0  0  0
 21 23  1  0  0  0  0
 22 21  1  0  0  0  0
 24 20  1  0  0  0  0
 25 19  1  0  0  0  0
 29 30  1  0  0  0  0
 29  2  1  0  0  0  0
 31 29  2  0  0  0  0
 32 33  1  0  0  0  0
 32  1  1  0  0  0  0
M  END
>  <target>  (78)
-1.23

$$$$
-49.80805077
 OpenBabel07082014033D

 32 32  0  0  0  0  0  0  0  0999 V2000
   -1.7664   -0.3169   -0.0692 C   0  0  0  0  0  0  0  0  0  0  0  0
   -0.4725   -0.8515    0.0746 C   0  0  0  0  0  0  0  0  0  0  0  0
    0.5953    0.0384    0.2282 C   0  0  0  0  0  0  0  0  0  0  0  0
    0.3237    1.3938    0.2854 C   0  0  0  0  0  3  0  0  0  0  0  0
   -0.9175    1.8818    0.1961 N   0  0  0  0  0  0  0  0  0  0  0  0
   -1.9727    1.0757    0.0130 C   0  0  0  0  0  0  0  0  0  0  0  0
   -3.3403    1.6459   -0.1063 C   0  0  0  0  0  0  0  0  0  0  0  0
   -3.6139    2.1937    0.7939 H   0  0  0  0  0  0  0  0  0  0  0  0
   -3.4062    2.3258   -0.9542 H   0  0  0  0  0  0  0  0  0  0  0  0
   -4.0473    0.8344   -0.2519 H   0  0  0  0  0  0  0  0  0  0  0  0
   -1.1202    3.3113    0.2896 C   0  0  0  0  0  0  0  0  0  0  0  0
   -0.1642    3.8067    0.4366 H   0  0  0  0  0  0  0  0  0  0  0  0
   -1.5812    3.6857   -0.6246 H   0  0  0  0  0  0  0  0  0  0  0  0
   -1.7767    3.5423    1.1285 H   0  0  0  0  0  0  0  0  0  0  0  0
    1.1444    2.0825    0.4091 H   0  0  0  0  0  0  0  0  0  0  0  0
    2.0304   -0.3876    0.3482 C   0  0  0  0  0  0  0  0  0  0  0  0
    2.9342    0.6737   -0.0696 N   0  0  0  0  0  0  0  0  0  0  0  0
    2.9880    0.7649   -1.5175 C   0  0  0  0  0  0  0  0  0  0  0  0
    3.5934    1.6253   -1.7956 H   0  0  0  0  0  0  0  0  0  0  0  0
    1.9816    0.8967   -1.9098 H   0  0  0  0  0  0  0  0  0  0  0  0
    3.4217   -0.1359   -1.9778 H   0  0  0  0  0  0  0  0  0  0  0  0
    4.2611    0.4927    0.4863 C   0  0  0  0  0  0  0  0  0  0  0  0
    4.8920    1.3176    0.1610 H   0  0  0  0  0  0  0  0  0  0  0  0
    4.7286   -0.4525    0.1727 H   0  0  0  0  0  0  0  0  0  0  0  0
    4.1993    0.5054    1.5729 H   0  0  0  0  0  0  0  0  0  0  0  0
    2.1895   -1.3231   -0.2091 H   0  0  0  0  0  0  0  0  0  0  0  0
    2.2162   -0.6269    1.3998 H   0  0  0  0  0  0  0  0  0  0  0  0
   -0.3119   -2.3776    0.0933 C   0  0  0  0  0  0  0  0  0  0  0  0
    0.7165   -2.8547    0.5889 O   0  0  0  0  0  1  0  0  0  0  0  0
   -1.2771   -3.0398   -0.3814 O   0  0  0  0  0  0  0  0  0  0  0  0
   -2.8295   -1.0875   -0.2845 O   0  0  0  0  0  0  0  0  0  0  0  0
   -2.4625   -2.0291   -0.3847 H   0  0  0  0  0  0  0  0  0  0  0  0
  1  6  2  0  0  0  0
  1  2  1  0  0  0  0
  2 28  1  0  0  0  0
  2  3  2  0  0  0  0
  3  4  1  0  0  0  0
  3 16  1  0  0  0  0
  4 15  1  0  0  0  0
  5  4  1  0  0  0  0
  5 11  1  0  0  0  0
  6  5  1  0  0  0  0
  7  6  1  0  0  0  0
  7  8  1  0  0  0  0
  9  7  1  0  0  0  0
 10  7  1  0  0  0  0
 11 12  1  0  0  0  0
 11 14  1  0  0  0  0
 13 11  1  0  0  0  0
 16 27  1  0  0  0  0
 17 16  1  0  0  0  0
 17 22  1  0  0  0  0
 18 17  1  0  0  0  0
 19 18  1  0  0  0  0
 20 18  1  0  0  0  0
 21 18  1  0  0  0  0
 22 25  1  0  0  0  0
 23 22  1  0  0  0  0
 24 22  1  0  0  0  0
 26 16  1  0  0  0  0
 28 29  1  0  0  0  0
 30 28  2  0  0  0  0
 31  1  1  0  0  0  0
 32 31  1  0  0  0  0
M  END
>  <target>  (79)
-1.35

$$$$
-56.13942731
 OpenBabel07082014033D

 38 38  0  0  0  0  0  0  0  0999 V2000
   -2.1884   -0.3175    0.0041 C   0  0  0  0  0  0  0  0  0  0  0  0
   -0.9037   -0.8825    0.1058 C   0  0  0  0  0  0  0  0  0  0  0  0
    0.1849   -0.0206    0.2739 C   0  0  0  0  0  0  0  0  0  0  0  0
   -0.0591    1.3351    0.3956 C   0  0  0  0  0  3  0  0  0  0  0  0
   -1.2908    1.8509    0.3458 N   0  0  0  0  0  0  0  0  0  0  0  0
   -2.3647    1.0743    0.1437 C   0  0  0  0  0  0  0  0  0  0  0  0
   -3.7218    1.6764    0.0667 C   0  0  0  0  0  0  0  0  0  0  0  0
   -4.4461    0.8870   -0.1112 H   0  0  0  0  0  0  0  0  0  0  0  0
   -3.7820    2.3988   -0.7456 H   0  0  0  0  0  0  0  0  0  0  0  0
   -3.9766    2.1835    0.9959 H   0  0  0  0  0  0  0  0  0  0  0  0
   -1.4632    3.2789    0.5011 C   0  0  0  0  0  0  0  0  0  0  0  0
   -1.9136    3.7020   -0.3970 H   0  0  0  0  0  0  0  0  0  0  0  0
   -0.4972    3.7468    0.6711 H   0  0  0  0  0  0  0  0  0  0  0  0
   -2.1166    3.4879    1.3481 H   0  0  0  0  0  0  0  0  0  0  0  0
    0.7787    2.0010    0.5284 H   0  0  0  0  0  0  0  0  0  0  0  0
    1.6149   -0.4821    0.3457 C   0  0  0  0  0  0  0  0  0  0  0  0
    2.5393    0.5837   -0.0042 N   0  0  0  0  0  0  0  0  0  0  0  0
    2.9314    0.5431   -1.4041 C   0  0  0  0  0  0  0  0  0  0  0  0
    1.7825    0.9315   -2.3284 C   0  0  0  0  0  0  0  0  0  0  0  0
    2.1342    0.9412   -3.3569 H   0  0  0  0  0  0  0  0  0  0  0  0
    1.4118    1.9195   -2.0746 H   0  0  0  0  0  0  0  0  0  0  0  0
    0.9662    0.2165   -2.2549 H   0  0  0  0  0  0  0  0  0  0  0  0
    3.2985   -0.4562   -1.6953 H   0  0  0  0  0  0  0  0  0  0  0  0
    3.7482    1.2558   -1.5372 H   0  0  0  0  0  0  0  0  0  0  0  0
    3.6616    0.7089    0.9110 C   0  0  0  0  0  0  0  0  0  0  0  0
    4.6515   -0.4599    0.9214 C   0  0  0  0  0  0  0  0  0  0  0  0
    5.4064   -0.2963    1.6858 H   0  0  0  0  0  0  0  0  0  0  0  0
    4.1400   -1.3962    1.1370 H   0  0  0  0  0  0  0  0  0  0  0  0
    5.1503   -0.5552   -0.0399 H   0  0  0  0  0  0  0  0  0  0  0  0
    3.2465    0.8362    1.9142 H   0  0  0  0  0  0  0  0  0  0  0  0
    4.1934    1.6270    0.6469 H   0  0  0  0  0  0  0  0  0  0  0  0
    1.7917   -0.8193    1.3715 H   0  0  0  0  0  0  0  0  0  0  0  0
    1.7409   -1.3720   -0.2847 H   0  0  0  0  0  0  0  0  0  0  0  0
   -0.7706   -2.4098    0.0585 C   0  0  0  0  0  0  0  0  0  0  0  0
    0.2626   -2.9244    0.5052 O   0  0  0  0  0  1  0  0  0  0  0  0
   -1.7593   -3.0370   -0.4162 O   0  0  0  0  0  0  0  0  0  0  0  0
   -3.2710   -1.0586   -0.2230 O   0  0  0  0  0  0  0  0  0  0  0  0
   -2.9249   -2.0026   -0.3619 H   0  0  0  0  0  0  0  0  0  0  0  0
  1  2  1  0  0  0  0
  1  6  2  0  0  0  0
  2  3  2  0  0  0  0
  3 16  1  0  0  0  0
  3  4  1  0  0  0  0
  4 15  1  0  0  0  0
  5  4  1  0  0  0  0
  5 11  1  0  0  0  0
  6  5  1  0  0  0  0
  7  6  1  0  0  0  0
  7 10  1  0  0  0  0
  8  7  1  0  0  0  0
  9  7  1  0  0  0  0
 11 13  1  0  0  0  0
 11 14  1  0  0  0  0
 12 11  1  0  0  0  0
 16 32  1  0  0  0  0
 17 16  1  0  0  0  0
 17 25  1  0  0  0  0
 18 17  1  0  0  0  0
 19 22  1  0  0  0  0
 19 21  1  0  0  0  0
 19 18  1  0  0  0  0
 20 19  1  0  0  0  0
 23 18  1  0  0  0  0
 24 18  1  0  0  0  0
 25 26  1  0  0  0  0
 25 30  1  0  0  0  0
 26 28  1  0  0  0  0
 26 27  1  0  0  0  0
 29 26  1  0  0  0  0
 31 25  1  0  0  0  0
 33 16  1  0  0  0  0
 34  2  1  0  0  0  0
 34 35  1  0  0  0  0
 36 34  2  0  0  0  0
 37  1  1  0  0  0  0
 38 37  1  0  0  0  0
M  END
>  <target>  (80)
-1.35

$$$$
